New Line.l(r:p3rdt0lv-p3rlv1) Units=km Length=0.026037000000000005 bus1=p3rdt0lv.1.2 bus2=p3rlv1.1.2 switch=n enabled=y phases=2 Linecode=1P_OH_AL_2/0_Rucina_2

New Line.l(r:p3rdt1lv-p3rlv2)_s0 Units=km Length=0.0245282 bus1=p3rdt1lv.1.2 bus2=p3rdt1lv-p3rlv2x.1.2 switch=n enabled=y phases=2 Linecode=1P_OH_AL_2/0_Rucina_2

New Line.l(r:p3rdt1lv-p3rlv2)_s1 Units=km Length=0.00174706 bus1=p3rdt1lv-p3rlv2x.1.2 bus2=p3rlv2.1.2 switch=n enabled=y phases=2 Linecode=1P_OH_AL_4_Periwinkle_2

New Line.l(r:p3rdt1lv-p3rlv7) Units=km Length=0.0262551 bus1=p3rdt1lv.1.2 bus2=p3rlv7.1.2 switch=n enabled=y phases=2 Linecode=1P_OH_AL_2/0_Rucina_2

New Line.l(r:p3rdt2lv-p3rlv3) Units=km Length=0.0194357 bus1=p3rdt2lv.1.2 bus2=p3rlv3.1.2 switch=n enabled=y phases=2 Linecode=1P_OH_AL_2/0_Rucina_2

New Line.l(r:p3rdt2lv-p3rlv4) Units=km Length=0.0314041 bus1=p3rdt2lv.1.2 bus2=p3rlv4.1.2 switch=n enabled=y phases=2 Linecode=1P_OH_AL_4/0_Zuzara_2

New Line.l(r:p3rdt2lv-p3rlv5) Units=km Length=0.0334126 bus1=p3rdt2lv.1.2 bus2=p3rlv5.1.2 switch=n enabled=y phases=2 Linecode=1P_OH_AL_4/0_Zuzara_2

New Line.l(r:p3rdt2lv-p3rlv6) Units=km Length=0.022570300000000005 bus1=p3rdt2lv.1.2 bus2=p3rlv6.1.2 switch=n enabled=y phases=2 Linecode=1P_OH_AL_2/0_Rucina_2

New Line.l(r:p3rdt2lv-p3rlv8) Units=km Length=0.0735921 bus1=p3rdt2lv.1.2 bus2=p3rlv8.1.2 switch=n enabled=y phases=2 Linecode=1P_OH_AL_4/0_Zuzara_2

New Line.l(r:p3rdt3lv-p3rlv9) Units=km Length=0.0429455 bus1=p3rdt3lv.1.2 bus2=p3rlv9.1.2 switch=n enabled=y phases=2 Linecode=1P_OH_AL_4/0_Zuzara_2

New Line.l(r:p3rdt3lv-p3rlv25) Units=km Length=0.0884156 bus1=p3rdt3lv.1.2 bus2=p3rlv25.1.2 switch=n enabled=y phases=2 Linecode=1P_OH_AL_4/0_Zuzara_2

New Line.l(r:p3rdt3lv-p3rlv145) Units=km Length=0.0509652 bus1=p3rdt3lv.1.2 bus2=p3rlv145.1.2 switch=n enabled=y phases=2 Linecode=1P_OH_AL_4/0_Zuzara_2

New Line.l(r:p3rdm10-p3rlv140) Units=km Length=0.0668603 bus1=p3rdm10.1.2 bus2=p3rlv140.1.2 switch=n enabled=y phases=2 Linecode=1P_OH_AL_4/0_Zuzara_2

New Line.l(r:p3rdm10-p3rlv141) Units=km Length=0.0949987 bus1=p3rdm10.1.2 bus2=p3rlv141.1.2 switch=n enabled=y phases=2 Linecode=1P_OH_AL_4/0_Zuzara_2

New Line.l(r:p3rdm10-p3rlv153) Units=km Length=0.125479 bus1=p3rdm10.1.2 bus2=p3rlv153.1.2 switch=n enabled=y phases=2 Linecode=1P_OH_AL_4/0_Zuzara_2

New Line.l(r:p3rdm10-p3rdt3lv) Units=km Length=0.019588 bus1=p3rdt3lv.1.2 bus2=p3rdm10.1.2 switch=n enabled=y phases=2 Linecode=1P_OH_AL_2/0_Rucina_2

New Line.l(r:p3rdt4lv-p3rlv10) Units=km Length=0.0099777 bus1=p3rdt4lv.1.2 bus2=p3rlv10.1.2 switch=n enabled=y phases=2 Linecode=1P_OH_AL_2/0_Rucina_2

New Line.l(r:p3rdt4lv-p3rlv12) Units=km Length=0.0239857 bus1=p3rdt4lv.1.2 bus2=p3rlv12.1.2 switch=n enabled=y phases=2 Linecode=1P_OH_AL_2/0_Rucina_2

New Line.l(r:p3rdt4lv-p3rlv14) Units=km Length=0.0217126 bus1=p3rdt4lv.1.2 bus2=p3rlv14.1.2 switch=n enabled=y phases=2 Linecode=1P_OH_AL_2/0_Rucina_2

New Line.l(r:p3rdt4lv-p3rlv271) Units=km Length=0.039684 bus1=p3rdt4lv.1.2 bus2=p3rlv271.1.2 switch=n enabled=y phases=2 Linecode=1P_OH_AL_4/0_Zuzara_2

New Line.l(r:p3rdt6lv-p3rlv13) Units=km Length=0.1043 bus1=p3rdt6lv.1.2 bus2=p3rlv13.1.2 switch=n enabled=y phases=2 Linecode=1P_OH_AL_4/0_Zuzara_2

New Line.l(r:p3rdm20-p3rlv17) Units=km Length=0.0850323 bus1=p3rdm20.1.2 bus2=p3rlv17.1.2 switch=n enabled=y phases=2 Linecode=1P_OH_AL_4/0_Zuzara_2

New Line.l(r:p3rdm20-p3rlv28) Units=km Length=0.108104 bus1=p3rdm20.1.2 bus2=p3rlv28.1.2 switch=n enabled=y phases=2 Linecode=1P_OH_AL_4/0_Zuzara_2

New Line.l(r:p3rdm20-p3rdt6lv) Units=km Length=0.0197908 bus1=p3rdt6lv.1.2 bus2=p3rdm20.1.2 switch=n enabled=y phases=2 Linecode=1P_OH_AL_2/0_Rucina_2

New Line.l(r:p3rdt10lv-p3rlv19) Units=km Length=0.001 bus1=p3rdt10lv.1.2 bus2=p3rlv19.1.2 switch=n enabled=y phases=2 Linecode=1P_OH_AL_4_Periwinkle_2

New Line.l(r:p3rdt11lv-p3rlv20) Units=km Length=0.001 bus1=p3rdt11lv.1.2 bus2=p3rlv20.1.2 switch=n enabled=y phases=2 Linecode=1P_OH_AL_4_Periwinkle_2

New Line.l(r:p3rdt12lv-p3rlv21) Units=km Length=0.0377282 bus1=p3rdt12lv.1.2 bus2=p3rlv21.1.2 switch=n enabled=y phases=2 Linecode=1P_OH_AL_4/0_Zuzara_2

New Line.l(r:p3rdt16lv-p3rlv27) Units=km Length=0.0218233 bus1=p3rdt16lv.1.2 bus2=p3rlv27.1.2 switch=n enabled=y phases=2 Linecode=1P_OH_AL_2/0_Rucina_2

New Line.l(r:p3rdt35lv-p3rlv63) Units=km Length=0.0183919 bus1=p3rdt35lv.1.2 bus2=p3rlv63.1.2 switch=n enabled=y phases=2 Linecode=1P_OH_AL_2/0_Rucina_2

New Line.l(r:p3rdt35lv-p3rlv65) Units=km Length=0.00851206 bus1=p3rdt35lv.1.2 bus2=p3rlv65.1.2 switch=n enabled=y phases=2 Linecode=1P_OH_AL_2/0_Rucina_2

New Line.l(r:p3rdt35lv-p3rlv68) Units=km Length=0.0378347 bus1=p3rdt35lv.1.2 bus2=p3rlv68.1.2 switch=n enabled=y phases=2 Linecode=1P_OH_AL_4/0_Zuzara_2

New Line.l(r:p3rdm70-p3rlv70) Units=km Length=0.0100629 bus1=p3rdm70.1.2 bus2=p3rlv70.1.2 switch=n enabled=y phases=2 Linecode=1P_OH_AL_2/0_Rucina_2

New Line.l(r:p3rdm70-p3rdt35lv) Units=km Length=0.03439 bus1=p3rdt35lv.1.2 bus2=p3rdm70.1.2 switch=n enabled=y phases=2 Linecode=1P_OH_AL_4/0_Zuzara_2

New Line.l(r:p3rdm72-p3rlv73) Units=km Length=0.0163089 bus1=p3rdm72.1.2 bus2=p3rlv73.1.2 switch=n enabled=y phases=2 Linecode=1P_OH_AL_2/0_Rucina_2

New Line.l(r:p3rdm72-p3rlv74) Units=km Length=0.00719576 bus1=p3rdm72.1.2 bus2=p3rlv74.1.2 switch=n enabled=y phases=2 Linecode=1P_OH_AL_2/0_Rucina_2

New Line.l(r:p3rdm71-p3rlv71) Units=km Length=0.028508300000000004 bus1=p3rdm71.1.2 bus2=p3rlv71.1.2 switch=n enabled=y phases=2 Linecode=1P_OH_AL_4/0_Zuzara_2

New Line.l(r:p3rdm71-p3rdm72) Units=km Length=0.0475719 bus1=p3rdm72.1.2 bus2=p3rdm71.1.2 switch=n enabled=y phases=2 Linecode=1P_OH_AL_4/0_Zuzara_2

New Line.l(r:p3rdm72-p3rdt35lv) Units=km Length=0.0171975 bus1=p3rdt35lv.1.2 bus2=p3rdm72.1.2 switch=n enabled=y phases=2 Linecode=1P_OH_AL_2/0_Rucina_2

New Line.l(r:p3rdt36lv-p3rlv64) Units=km Length=0.00418044 bus1=p3rdt36lv.1.2 bus2=p3rlv64.1.2 switch=n enabled=y phases=2 Linecode=1P_OH_AL_2/0_Rucina_2

New Line.l(r:p3rdt37lv-p3rlv66) Units=km Length=0.0613582 bus1=p3rdt37lv.1.2 bus2=p3rlv66.1.2 switch=n enabled=y phases=2 Linecode=1P_OH_AL_4/0_Zuzara_2

New Line.l(r:p3rdm76-p3rlv69) Units=km Length=0.00997008 bus1=p3rdm76.1.2 bus2=p3rlv69.1.2 switch=n enabled=y phases=2 Linecode=1P_OH_AL_2/0_Rucina_2

New Line.l(r:p3rdm76-p3rdt37lv) Units=km Length=0.0171925 bus1=p3rdt37lv.1.2 bus2=p3rdm76.1.2 switch=n enabled=y phases=2 Linecode=1P_OH_AL_2/0_Rucina_2

New Line.l(r:p3rdt38lv-p3rlv67) Units=km Length=0.001 bus1=p3rdt38lv.1.2 bus2=p3rlv67.1.2 switch=n enabled=y phases=2 Linecode=1P_OH_AL_4_Periwinkle_2

New Line.l(r:p3rdt39lv-p3rlv72) Units=km Length=0.048886 bus1=p3rdt39lv.1.2 bus2=p3rlv72.1.2 switch=n enabled=y phases=2 Linecode=1P_OH_AL_4/0_Zuzara_2

New Line.l(r:p3rdt40lv-p3rlv75) Units=km Length=0.0383785 bus1=p3rdt40lv.1.2 bus2=p3rlv75.1.2 switch=n enabled=y phases=2 Linecode=1P_OH_AL_4/0_Zuzara_2

New Line.l(r:p3rdt40lv-p3rlv76) Units=km Length=0.0382332 bus1=p3rdt40lv.1.2 bus2=p3rlv76.1.2 switch=n enabled=y phases=2 Linecode=1P_OH_AL_4/0_Zuzara_2

New Line.l(r:p3rdt40lv-p3rlv77) Units=km Length=0.039893000000000005 bus1=p3rdt40lv.1.2 bus2=p3rlv77.1.2 switch=n enabled=y phases=2 Linecode=1P_OH_AL_4/0_Zuzara_2

New Line.l(r:p3rdt42lv-p3rlv79) Units=km Length=0.0695001 bus1=p3rdt42lv.1.2 bus2=p3rlv79.1.2 switch=n enabled=y phases=2 Linecode=1P_OH_AL_4/0_Zuzara_2

New Line.l(r:p3rdt42lv-p3rlv273) Units=km Length=0.0134696 bus1=p3rdt42lv.1.2 bus2=p3rlv273.1.2 switch=n enabled=y phases=2 Linecode=1P_OH_AL_2/0_Rucina_2

New Line.l(r:p3rdt42lv-p3rlv274) Units=km Length=0.0353526 bus1=p3rdt42lv.1.2 bus2=p3rlv274.1.2 switch=n enabled=y phases=2 Linecode=1P_OH_AL_4/0_Zuzara_2

New Line.l(r:p3rdt65lv-p3rlv112) Units=km Length=0.001 bus1=p3rdt65lv.1.2 bus2=p3rlv112.1.2 switch=n enabled=y phases=2 Linecode=1P_OH_AL_4_Periwinkle_2

New Line.l(r:p3rdt66lv-p3rlv113) Units=km Length=0.0919213 bus1=p3rdt66lv.1.2 bus2=p3rlv113.1.2 switch=n enabled=y phases=2 Linecode=1P_OH_AL_4/0_Zuzara_2

New Line.l(r:p3rdm120-p3rlv151) Units=km Length=0.0691051 bus1=p3rdm120.1.2 bus2=p3rlv151.1.2 switch=n enabled=y phases=2 Linecode=1P_OH_AL_4/0_Zuzara_2

New Line.l(r:p3rdm120-p3rdt66lv) Units=km Length=0.019588 bus1=p3rdt66lv.1.2 bus2=p3rdm120.1.2 switch=n enabled=y phases=2 Linecode=1P_OH_AL_2/0_Rucina_2

New Line.l(r:p3rdm121-p3rlv158) Units=km Length=0.05191110000000001 bus1=p3rdm121.1.2 bus2=p3rlv158.1.2 switch=n enabled=y phases=2 Linecode=1P_OH_AL_4/0_Zuzara_2

New Line.l(r:p3rdm121-p3rdt66lv) Units=km Length=0.019578 bus1=p3rdt66lv.1.2 bus2=p3rdm121.1.2 switch=n enabled=y phases=2 Linecode=1P_OH_AL_2/0_Rucina_2

New Line.l(r:p3rdt67lv-p3rlv114) Units=km Length=0.0969167 bus1=p3rdt67lv.1.2 bus2=p3rlv114.1.2 switch=n enabled=y phases=2 Linecode=1P_OH_AL_4/0_Zuzara_2

New Line.l(r:p3rdt67lv-p3rlv124) Units=km Length=0.10335 bus1=p3rdt67lv.1.2 bus2=p3rlv124.1.2 switch=n enabled=y phases=2 Linecode=1P_OH_AL_4/0_Zuzara_2

New Line.l(r:p3rdt67lv-p3rlv142) Units=km Length=0.0560404 bus1=p3rdt67lv.1.2 bus2=p3rlv142.1.2 switch=n enabled=y phases=2 Linecode=1P_OH_AL_4/0_Zuzara_2

New Line.l(r:p3rdt68lv-p3rlv128) Units=km Length=0.0469224 bus1=p3rdt68lv.1.2 bus2=p3rlv128.1.2 switch=n enabled=y phases=2 Linecode=1P_OH_AL_4/0_Zuzara_2

New Line.l(r:p3rdm125-p3rlv115) Units=km Length=0.0473655 bus1=p3rdm125.1.2 bus2=p3rlv115.1.2 switch=n enabled=y phases=2 Linecode=1P_OH_AL_4/0_Zuzara_2

New Line.l(r:p3rdm125-p3rdt68lv) Units=km Length=0.019588 bus1=p3rdt68lv.1.2 bus2=p3rdm125.1.2 switch=n enabled=y phases=2 Linecode=1P_OH_AL_2/0_Rucina_2

New Line.l(r:p3rdt69lv-p3rlv116) Units=km Length=0.0714783 bus1=p3rdt69lv.1.2 bus2=p3rlv116.1.2 switch=n enabled=y phases=2 Linecode=1P_OH_AL_4/0_Zuzara_2

New Line.l(r:p3rdt69lv-p3rlv152) Units=km Length=0.0208194 bus1=p3rdt69lv.1.2 bus2=p3rlv152.1.2 switch=n enabled=y phases=2 Linecode=1P_OH_AL_2/0_Rucina_2

New Line.l(r:p3rdm128-p3rlv120) Units=km Length=0.0893744 bus1=p3rdm128.1.2 bus2=p3rlv120.1.2 switch=n enabled=y phases=2 Linecode=1P_OH_AL_4/0_Zuzara_2

New Line.l(r:p3rdm128-p3rdt69lv) Units=km Length=0.019578 bus1=p3rdt69lv.1.2 bus2=p3rdm128.1.2 switch=n enabled=y phases=2 Linecode=1P_OH_AL_2/0_Rucina_2

New Line.l(r:p3rdm129-p3rlv147) Units=km Length=0.0577301 bus1=p3rdm129.1.2 bus2=p3rlv147.1.2 switch=n enabled=y phases=2 Linecode=1P_OH_AL_4/0_Zuzara_2

New Line.l(r:p3rdm129-p3rdt69lv) Units=km Length=0.019588 bus1=p3rdt69lv.1.2 bus2=p3rdm129.1.2 switch=n enabled=y phases=2 Linecode=1P_OH_AL_2/0_Rucina_2

New Line.l(r:p3rdt70lv-p3rlv117) Units=km Length=0.0689837 bus1=p3rdt70lv.1.2 bus2=p3rlv117.1.2 switch=n enabled=y phases=2 Linecode=1P_OH_AL_4/0_Zuzara_2

New Line.l(r:p3rdt70lv-p3rlv129) Units=km Length=0.049381 bus1=p3rdt70lv.1.2 bus2=p3rlv129.1.2 switch=n enabled=y phases=2 Linecode=1P_OH_AL_4/0_Zuzara_2

New Line.l(r:p3rdm133-p3rlv155) Units=km Length=0.0501841 bus1=p3rdm133.1.2 bus2=p3rlv155.1.2 switch=n enabled=y phases=2 Linecode=1P_OH_AL_4/0_Zuzara_2

New Line.l(r:p3rdm133-p3rdt70lv) Units=km Length=0.019588 bus1=p3rdt70lv.1.2 bus2=p3rdm133.1.2 switch=n enabled=y phases=2 Linecode=1P_OH_AL_2/0_Rucina_2

New Line.l(r:p3rdt71lv-p3rlv118) Units=km Length=0.04165100000000001 bus1=p3rdt71lv.1.2 bus2=p3rlv118.1.2 switch=n enabled=y phases=2 Linecode=1P_OH_AL_4/0_Zuzara_2

New Line.l(r:p3rdt71lv-p3rlv123) Units=km Length=0.0421972 bus1=p3rdt71lv.1.2 bus2=p3rlv123.1.2 switch=n enabled=y phases=2 Linecode=1P_OH_AL_4/0_Zuzara_2

New Line.l(r:p3rdt71lv-p3rlv143) Units=km Length=0.0511537 bus1=p3rdt71lv.1.2 bus2=p3rlv143.1.2 switch=n enabled=y phases=2 Linecode=1P_OH_AL_4/0_Zuzara_2

New Line.l(r:p3rdt71lv-p3rlv146) Units=km Length=0.060663100000000005 bus1=p3rdt71lv.1.2 bus2=p3rlv146.1.2 switch=n enabled=y phases=2 Linecode=1P_OH_AL_4/0_Zuzara_2

New Line.l(r:p3rdt71lv-p3rlv149) Units=km Length=0.0213069 bus1=p3rdt71lv.1.2 bus2=p3rlv149.1.2 switch=n enabled=y phases=2 Linecode=1P_OH_AL_2/0_Rucina_2

New Line.l(r:p3rdm136-p3rlv130) Units=km Length=0.00805732 bus1=p3rdm136.1.2 bus2=p3rlv130.1.2 switch=n enabled=y phases=2 Linecode=1P_OH_AL_2/0_Rucina_2

New Line.l(r:p3rdm136-p3rdt71lv) Units=km Length=0.0122942 bus1=p3rdt71lv.1.2 bus2=p3rdm136.1.2 switch=n enabled=y phases=2 Linecode=1P_OH_AL_2/0_Rucina_2

New Line.l(r:p3rdt72lv-p3rlv119) Units=km Length=0.0367539 bus1=p3rdt72lv.1.2 bus2=p3rlv119.1.2 switch=n enabled=y phases=2 Linecode=1P_OH_AL_4/0_Zuzara_2

New Line.l(r:p3rdt72lv-p3rlv136) Units=km Length=0.0367539 bus1=p3rdt72lv.1.2 bus2=p3rlv136.1.2 switch=n enabled=y phases=2 Linecode=1P_OH_AL_4/0_Zuzara_2

New Line.l(r:p3rdt73lv-p3rlv121) Units=km Length=0.0611437 bus1=p3rdt73lv.1.2 bus2=p3rlv121.1.2 switch=n enabled=y phases=2 Linecode=1P_OH_AL_4/0_Zuzara_2

New Line.l(r:p3rdm143-p3rlv122) Units=km Length=0.0440601 bus1=p3rdm143.1.2 bus2=p3rlv122.1.2 switch=n enabled=y phases=2 Linecode=1P_OH_AL_4/0_Zuzara_2

New Line.l(r:p3rdm143-p3rdt74lv) Units=km Length=0.039166 bus1=p3rdt74lv.1.2 bus2=p3rdm143.1.2 switch=n enabled=y phases=2 Linecode=1P_OH_AL_4/0_Zuzara_2

New Line.l(r:p3rdm144-p3rlv138) Units=km Length=0.0476155 bus1=p3rdm144.1.2 bus2=p3rlv138.1.2 switch=n enabled=y phases=2 Linecode=1P_OH_AL_4/0_Zuzara_2

New Line.l(r:p3rdm145-p3rlv150) Units=km Length=0.0235511 bus1=p3rdm145.1.2 bus2=p3rlv150.1.2 switch=n enabled=y phases=2 Linecode=1P_OH_AL_2/0_Rucina_2

New Line.l(r:p3rdm144-p3rdm145) Units=km Length=0.019578 bus1=p3rdm144.1.2 bus2=p3rdm145.1.2 switch=n enabled=y phases=2 Linecode=1P_OH_AL_2/0_Rucina_2

New Line.l(r:p3rdm144-p3rdt74lv) Units=km Length=0.0195877 bus1=p3rdt74lv.1.2 bus2=p3rdm144.1.2 switch=n enabled=y phases=2 Linecode=1P_OH_AL_2/0_Rucina_2

New Line.l(r:p3rdt75lv-p3rlv125) Units=km Length=0.001 bus1=p3rdt75lv.1.2 bus2=p3rlv125.1.2 switch=n enabled=y phases=2 Linecode=1P_OH_AL_4_Periwinkle_2

New Line.l(r:p3rdt76lv-p3rlv126) Units=km Length=0.0283752 bus1=p3rdt76lv.1.2 bus2=p3rlv126.1.2 switch=n enabled=y phases=2 Linecode=1P_OH_AL_4/0_Zuzara_2

New Line.l(r:p3rdt76lv-p3rlv132) Units=km Length=0.03274740000000001 bus1=p3rdt76lv.1.2 bus2=p3rlv132.1.2 switch=n enabled=y phases=2 Linecode=1P_OH_AL_4/0_Zuzara_2

New Line.l(r:p3rdt76lv-p3rlv137) Units=km Length=0.0044908 bus1=p3rdt76lv.1.2 bus2=p3rlv137.1.2 switch=n enabled=y phases=2 Linecode=1P_OH_AL_2/0_Rucina_2

New Line.l(r:p3rdt77lv-p3rlv133) Units=km Length=0.0552275 bus1=p3rdt77lv.1.2 bus2=p3rlv133.1.2 switch=n enabled=y phases=2 Linecode=1P_OH_AL_4/0_Zuzara_2

New Line.l(r:p3rdm150-p3rlv127) Units=km Length=0.0285548 bus1=p3rdm150.1.2 bus2=p3rlv127.1.2 switch=n enabled=y phases=2 Linecode=1P_OH_AL_4/0_Zuzara_2

New Line.l(r:p3rdm150-p3rdt77lv) Units=km Length=0.0195877 bus1=p3rdt77lv.1.2 bus2=p3rdm150.1.2 switch=n enabled=y phases=2 Linecode=1P_OH_AL_2/0_Rucina_2

New Line.l(r:p3rdm152-p3rlv156) Units=km Length=0.0211975 bus1=p3rdm152.1.2 bus2=p3rlv156.1.2 switch=n enabled=y phases=2 Linecode=1P_OH_AL_2/0_Rucina_2

New Line.l(r:p3rdm152-p3rdt77lv) Units=km Length=0.039166 bus1=p3rdt77lv.1.2 bus2=p3rdm152.1.2 switch=n enabled=y phases=2 Linecode=1P_OH_AL_4/0_Zuzara_2

New Line.l(r:p3rdt78lv-p3rlv131) Units=km Length=0.055066 bus1=p3rdt78lv.1.2 bus2=p3rlv131.1.2 switch=n enabled=y phases=2 Linecode=1P_OH_AL_4/0_Zuzara_2

New Line.l(r:p3rdt79lv-p3rlv134) Units=km Length=0.0355408 bus1=p3rdt79lv.1.2 bus2=p3rlv134.1.2 switch=n enabled=y phases=2 Linecode=1P_OH_AL_4/0_Zuzara_2

New Line.l(r:p3rdt80lv-p3rlv135) Units=km Length=0.0339405 bus1=p3rdt80lv.1.2 bus2=p3rlv135.1.2 switch=n enabled=y phases=2 Linecode=1P_OH_AL_4/0_Zuzara_2

New Line.l(r:p3rdt81lv-p3rlv139) Units=km Length=0.015572 bus1=p3rdt81lv.1.2 bus2=p3rlv139.1.2 switch=n enabled=y phases=2 Linecode=1P_OH_AL_2/0_Rucina_2

New Line.l(r:p3rdt81lv-p3rlv235) Units=km Length=0.0182126 bus1=p3rdt81lv.1.2 bus2=p3rlv235.1.2 switch=n enabled=y phases=2 Linecode=1P_OH_AL_2/0_Rucina_2

New Line.l(r:p3rdt81lv-p3rlv241) Units=km Length=0.0230863 bus1=p3rdt81lv.1.2 bus2=p3rlv241.1.2 switch=n enabled=y phases=2 Linecode=1P_OH_AL_2/0_Rucina_2

New Line.l(r:p3rdt81lv-p3rlv245) Units=km Length=0.0239571 bus1=p3rdt81lv.1.2 bus2=p3rlv245.1.2 switch=n enabled=y phases=2 Linecode=1P_OH_AL_2/0_Rucina_2

New Line.l(r:p3rdt82lv-p3rlv144) Units=km Length=0.001 bus1=p3rdt82lv.1.2 bus2=p3rlv144.1.2 switch=n enabled=y phases=2 Linecode=1P_OH_AL_4_Periwinkle_2

New Line.l(r:p3rdt83lv-p3rlv148) Units=km Length=0.0387442 bus1=p3rdt83lv.1.2 bus2=p3rlv148.1.2 switch=n enabled=y phases=2 Linecode=1P_OH_AL_4/0_Zuzara_2

New Line.l(r:p3rdt84lv-p3rlv154) Units=km Length=0.001 bus1=p3rdt84lv.1.2 bus2=p3rlv154.1.2 switch=n enabled=y phases=2 Linecode=1P_OH_AL_4_Periwinkle_2

New Line.l(r:p3rdt85lv-p3rlv157) Units=km Length=0.0545134 bus1=p3rdt85lv.1.2 bus2=p3rlv157.1.2 switch=n enabled=y phases=2 Linecode=1P_OH_AL_4/0_Zuzara_2

New Line.l(r:p3rdt104lv-p3rlv185) Units=km Length=0.018428200000000002 bus1=p3rdt104lv.1.2 bus2=p3rlv185.1.2 switch=n enabled=y phases=2 Linecode=1P_OH_AL_2/0_Rucina_2

New Line.l(r:p3rdt105lv-p3rlv186) Units=km Length=0.0392436 bus1=p3rdt105lv.1.2 bus2=p3rlv186.1.2 switch=n enabled=y phases=2 Linecode=1P_OH_AL_4/0_Zuzara_2

New Line.l(r:p3rdt106lv-p3rlv190) Units=km Length=0.0129966 bus1=p3rdt106lv.1.2 bus2=p3rlv190.1.2 switch=n enabled=y phases=2 Linecode=1P_OH_AL_2/0_Rucina_2

New Line.l(r:p3rdm193-p3rlv187) Units=km Length=0.013556000000000002 bus1=p3rdm193.1.2 bus2=p3rlv187.1.2 switch=n enabled=y phases=2 Linecode=1P_OH_AL_2/0_Rucina_2

New Line.l(r:p3rdm193-p3rlv188) Units=km Length=0.005673 bus1=p3rdm193.1.2 bus2=p3rlv188.1.2 switch=n enabled=y phases=2 Linecode=1P_OH_AL_2/0_Rucina_2

New Line.l(r:p3rdm193-p3rdt106lv) Units=km Length=0.0158685 bus1=p3rdt106lv.1.2 bus2=p3rdm193.1.2 switch=n enabled=y phases=2 Linecode=1P_OH_AL_2/0_Rucina_2

New Line.l(r:p3rdm196-p3rlv192) Units=km Length=0.0113656 bus1=p3rdm196.1.2 bus2=p3rlv192.1.2 switch=n enabled=y phases=2 Linecode=1P_OH_AL_2/0_Rucina_2

New Line.l(r:p3rdm196-p3rdt106lv) Units=km Length=0.0158656 bus1=p3rdt106lv.1.2 bus2=p3rdm196.1.2 switch=n enabled=y phases=2 Linecode=1P_OH_AL_2/0_Rucina_2

New Line.l(r:p3rdt107lv-p3rlv189) Units=km Length=0.0403274 bus1=p3rdt107lv.1.2 bus2=p3rlv189.1.2 switch=n enabled=y phases=2 Linecode=1P_OH_AL_4/0_Zuzara_2

New Line.l(r:p3rdt108lv-p3rlv199) Units=km Length=0.0148475 bus1=p3rdt108lv.1.2 bus2=p3rlv199.1.2 switch=n enabled=y phases=2 Linecode=1P_OH_AL_2/0_Rucina_2

New Line.l(r:p3rdt108lv-p3rlv202) Units=km Length=0.0129766 bus1=p3rdt108lv.1.2 bus2=p3rlv202.1.2 switch=n enabled=y phases=2 Linecode=1P_OH_AL_2/0_Rucina_2

New Line.l(r:p3rdm198-p3rlv191) Units=km Length=0.0189705 bus1=p3rdm198.1.2 bus2=p3rlv191.1.2 switch=n enabled=y phases=2 Linecode=1P_OH_AL_2/0_Rucina_2

New Line.l(r:p3rdm198-p3rdt108lv) Units=km Length=0.103768 bus1=p3rdt108lv.1.2 bus2=p3rdm198.1.2 switch=n enabled=y phases=2 Linecode=1P_OH_AL_4/0_Zuzara_2

New Line.l(r:p3rdm201-p3rlv208) Units=km Length=0.03542 bus1=p3rdm201.1.2 bus2=p3rlv208.1.2 switch=n enabled=y phases=2 Linecode=1P_OH_AL_4/0_Zuzara_2

New Line.l(r:p3rdm201-p3rdt108lv) Units=km Length=0.029504700000000002 bus1=p3rdt108lv.1.2 bus2=p3rdm201.1.2 switch=n enabled=y phases=2 Linecode=1P_OH_AL_4/0_Zuzara_2

New Line.l(r:p3rdt109lv-p3rlv194) Units=km Length=0.0444138 bus1=p3rdt109lv.1.2 bus2=p3rlv194.1.2 switch=n enabled=y phases=2 Linecode=1P_OH_AL_4/0_Zuzara_2

New Line.l(r:p3rdt109lv-p3rlv201) Units=km Length=0.0651934 bus1=p3rdt109lv.1.2 bus2=p3rlv201.1.2 switch=n enabled=y phases=2 Linecode=1P_OH_AL_4/0_Zuzara_2

New Line.l(r:p3rdm202-p3rlv193) Units=km Length=0.0747837 bus1=p3rdm202.1.2 bus2=p3rlv193.1.2 switch=n enabled=y phases=2 Linecode=1P_OH_AL_4/0_Zuzara_2

New Line.l(r:p3rdm202-p3rdt109lv) Units=km Length=0.01904 bus1=p3rdt109lv.1.2 bus2=p3rdm202.1.2 switch=n enabled=y phases=2 Linecode=1P_OH_AL_2/0_Rucina_2

New Line.l(r:p3rdt110lv-p3rlv195) Units=km Length=0.0868223 bus1=p3rdt110lv.1.2 bus2=p3rlv195.1.2 switch=n enabled=y phases=2 Linecode=1P_OH_AL_4/0_Zuzara_2

New Line.l(r:p3rdt111lv-p3rlv196) Units=km Length=0.023802600000000004 bus1=p3rdt111lv.1.2 bus2=p3rlv196.1.2 switch=n enabled=y phases=2 Linecode=1P_OH_AL_2/0_Rucina_2

New Line.l(r:p3rdt112lv-p3rlv197) Units=km Length=0.0522764 bus1=p3rdt112lv.1.2 bus2=p3rlv197.1.2 switch=n enabled=y phases=2 Linecode=1P_OH_AL_4/0_Zuzara_2

New Line.l(r:p3rdt112lv-p3rlv198) Units=km Length=0.036571 bus1=p3rdt112lv.1.2 bus2=p3rlv198.1.2 switch=n enabled=y phases=2 Linecode=1P_OH_AL_4/0_Zuzara_2

New Line.l(r:p3rdt114lv-p3rlv203) Units=km Length=0.056043 bus1=p3rdt114lv.1.2 bus2=p3rlv203.1.2 switch=n enabled=y phases=2 Linecode=1P_OH_AL_4/0_Zuzara_2

New Line.l(r:p3rdm211-p3rlv204) Units=km Length=0.037964700000000004 bus1=p3rdm211.1.2 bus2=p3rlv204.1.2 switch=n enabled=y phases=2 Linecode=1P_OH_AL_4/0_Zuzara_2

New Line.l(r:p3rdm212-p3rlv206) Units=km Length=0.118441 bus1=p3rdm212.1.2 bus2=p3rlv206.1.2 switch=n enabled=y phases=2 Linecode=1P_OH_AL_4/0_Zuzara_2

New Line.l(r:p3rdm211-p3rdm212) Units=km Length=0.0166885 bus1=p3rdm211.1.2 bus2=p3rdm212.1.2 switch=n enabled=y phases=2 Linecode=1P_OH_AL_2/0_Rucina_2

New Line.l(r:p3rdm211-p3rdt114lv) Units=km Length=0.0166946 bus1=p3rdt114lv.1.2 bus2=p3rdm211.1.2 switch=n enabled=y phases=2 Linecode=1P_OH_AL_2/0_Rucina_2

New Line.l(r:p3rdt115lv-p3rlv205) Units=km Length=0.00837969 bus1=p3rdt115lv.1.2 bus2=p3rlv205.1.2 switch=n enabled=y phases=2 Linecode=1P_OH_AL_2/0_Rucina_2

New Line.l(r:p3rdt115lv-p3rlv207) Units=km Length=0.00837969 bus1=p3rdt115lv.1.2 bus2=p3rlv207.1.2 switch=n enabled=y phases=2 Linecode=1P_OH_AL_2/0_Rucina_2

New Line.l(r:p3rdt117lv-p3rlv211) Units=km Length=0.0158845 bus1=p3rdt117lv.1.2 bus2=p3rlv211.1.2 switch=n enabled=y phases=2 Linecode=1P_OH_AL_2/0_Rucina_2

New Line.l(r:p3rdt118lv-p3rlv212) Units=km Length=0.00263638 bus1=p3rdt118lv.1.2 bus2=p3rlv212.1.2 switch=n enabled=y phases=2 Linecode=1P_OH_AL_4_Periwinkle_2

New Line.l(r:p3rdt119lv-p3rlv214) Units=km Length=0.001 bus1=p3rdt119lv.1.2 bus2=p3rlv214.1.2 switch=n enabled=y phases=2 Linecode=1P_OH_AL_4_Periwinkle_2

New Line.l(r:p3rdm219-p3rlv213) Units=km Length=0.008336500000000002 bus1=p3rdm219.1.2 bus2=p3rlv213.1.2 switch=n enabled=y phases=2 Linecode=1P_OH_AL_2/0_Rucina_2

New Line.l(r:p3rdm221-p3rlv217) Units=km Length=0.00708071 bus1=p3rdm221.1.2 bus2=p3rlv217.1.2 switch=n enabled=y phases=2 Linecode=1P_OH_AL_2/0_Rucina_2

New Line.l(r:p3rdm219-p3rdm221) Units=km Length=0.102921 bus1=p3rdm219.1.2 bus2=p3rdm221.1.2 switch=n enabled=y phases=2 Linecode=1P_OH_AL_4/0_Zuzara_2

New Line.l(r:p3rdm219-p3rdt119lv) Units=km Length=0.0362992 bus1=p3rdt119lv.1.2 bus2=p3rdm219.1.2 switch=n enabled=y phases=2 Linecode=1P_OH_AL_4/0_Zuzara_2

New Line.l(r:p3rdt120lv-p3rlv215) Units=km Length=0.007436800000000001 bus1=p3rdt120lv.1.2 bus2=p3rlv215.1.2 switch=n enabled=y phases=2 Linecode=1P_OH_AL_2/0_Rucina_2

New Line.l(r:p3rdt121lv-p3rlv216) Units=km Length=0.0163328 bus1=p3rdt121lv.1.2 bus2=p3rlv216.1.2 switch=n enabled=y phases=2 Linecode=1P_OH_AL_2/0_Rucina_2

New Line.l(r:p3rdt128lv-p3rlv230) Units=km Length=0.00662999 bus1=p3rdt128lv.1.2 bus2=p3rlv230.1.2 switch=n enabled=y phases=2 Linecode=1P_OH_AL_2/0_Rucina_2

New Line.l(r:p3rdt128lv-p3rlv231) Units=km Length=0.0212354 bus1=p3rdt128lv.1.2 bus2=p3rlv231.1.2 switch=n enabled=y phases=2 Linecode=1P_OH_AL_2/0_Rucina_2

New Line.l(r:p3rdt128lv-p3rlv232) Units=km Length=0.0146493 bus1=p3rdt128lv.1.2 bus2=p3rlv232.1.2 switch=n enabled=y phases=2 Linecode=1P_OH_AL_2/0_Rucina_2

New Line.l(r:p3rdt129lv-p3rlv233) Units=km Length=0.0139623 bus1=p3rdt129lv.1.2 bus2=p3rlv233.1.2 switch=n enabled=y phases=2 Linecode=1P_OH_AL_2/0_Rucina_2

New Line.l(r:p3rdt130lv-p3rlv234) Units=km Length=0.001 bus1=p3rdt130lv.1.2 bus2=p3rlv234.1.2 switch=n enabled=y phases=2 Linecode=1P_OH_AL_4_Periwinkle_2

New Line.l(r:p3rdm241-p3rlv236) Units=km Length=0.066876 bus1=p3rdm241.1.2 bus2=p3rlv236.1.2 switch=n enabled=y phases=2 Linecode=1P_OH_AL_4/0_Zuzara_2

New Line.l(r:p3rdm241-p3rdt131lv) Units=km Length=0.0198611 bus1=p3rdt131lv.1.2 bus2=p3rdm241.1.2 switch=n enabled=y phases=2 Linecode=1P_OH_AL_2/0_Rucina_2

New Line.l(r:p3rdm242-p3rlv244) Units=km Length=0.0952272 bus1=p3rdm242.1.2 bus2=p3rlv244.1.2 switch=n enabled=y phases=2 Linecode=1P_OH_AL_4/0_Zuzara_2

New Line.l(r:p3rdm242-p3rdt131lv) Units=km Length=0.0198512 bus1=p3rdt131lv.1.2 bus2=p3rdm242.1.2 switch=n enabled=y phases=2 Linecode=1P_OH_AL_2/0_Rucina_2

New Line.l(r:p3rdt132lv-p3rlv237) Units=km Length=0.0969935 bus1=p3rdt132lv.1.2 bus2=p3rlv237.1.2 switch=n enabled=y phases=2 Linecode=1P_OH_AL_4/0_Zuzara_2

New Line.l(r:p3rdt133lv-p3rlv238) Units=km Length=0.0488766 bus1=p3rdt133lv.1.2 bus2=p3rlv238.1.2 switch=n enabled=y phases=2 Linecode=1P_OH_AL_4/0_Zuzara_2

New Line.l(r:p3rdt134lv-p3rlv239) Units=km Length=0.0309557 bus1=p3rdt134lv.1.2 bus2=p3rlv239.1.2 switch=n enabled=y phases=2 Linecode=1P_OH_AL_4/0_Zuzara_2

New Line.l(r:p3rdt134lv-p3rlv243) Units=km Length=0.020665400000000004 bus1=p3rdt134lv.1.2 bus2=p3rlv243.1.2 switch=n enabled=y phases=2 Linecode=1P_OH_AL_2/0_Rucina_2

New Line.l(r:p3rdt134lv-p3rlv246) Units=km Length=0.0148754 bus1=p3rdt134lv.1.2 bus2=p3rlv246.1.2 switch=n enabled=y phases=2 Linecode=1P_OH_AL_2/0_Rucina_2

New Line.l(r:p3rdt135lv-p3rlv240) Units=km Length=0.0820018 bus1=p3rdt135lv.1.2 bus2=p3rlv240.1.2 switch=n enabled=y phases=2 Linecode=1P_OH_AL_4/0_Zuzara_2

New Line.l(r:p3rdt136lv-p3rlv242) Units=km Length=0.0915598 bus1=p3rdt136lv.1.2 bus2=p3rlv242.1.2 switch=n enabled=y phases=2 Linecode=1P_OH_AL_4/0_Zuzara_2

New Line.l(r:p3rdt152lv-p3rlv275) Units=km Length=0.0175893 bus1=p3rdt152lv.1.2 bus2=p3rlv275.1.2 switch=n enabled=y phases=2 Linecode=1P_OH_AL_2/0_Rucina_2

New Line.l(r:p3rdt153lv-p3rlv276) Units=km Length=0.0557192 bus1=p3rdt153lv.1.2 bus2=p3rlv276.1.2 switch=n enabled=y phases=2 Linecode=1P_OH_AL_4/0_Zuzara_2

New Line.l(r:p3rdt153lv-p3rlv277) Units=km Length=0.0439522 bus1=p3rdt153lv.1.2 bus2=p3rlv277.1.2 switch=n enabled=y phases=2 Linecode=1P_OH_AL_4/0_Zuzara_2

New Line.l(r:p3rdt153lv-p3rlv316) Units=km Length=0.059797600000000006 bus1=p3rdt153lv.1.2 bus2=p3rlv316.1.2 switch=n enabled=y phases=2 Linecode=1P_OH_AL_4/0_Zuzara_2

New Line.l(r:p3rdt153lv-p3rlv317) Units=km Length=0.0333076 bus1=p3rdt153lv.1.2 bus2=p3rlv317.1.2 switch=n enabled=y phases=2 Linecode=1P_OH_AL_4/0_Zuzara_2

New Line.l(r:p3rdt153lv-p3rlv325) Units=km Length=0.00730632 bus1=p3rdt153lv.1.2 bus2=p3rlv325.1.2 switch=n enabled=y phases=2 Linecode=1P_OH_AL_2/0_Rucina_2

New Line.l(r:p3rdt154lv-p3rlv278) Units=km Length=0.001 bus1=p3rdt154lv.1.2 bus2=p3rlv278.1.2 switch=n enabled=y phases=2 Linecode=1P_OH_AL_4_Periwinkle_2

New Line.l(r:p3rdt155lv-p3rlv279) Units=km Length=0.0101819 bus1=p3rdt155lv.1.2 bus2=p3rlv279.1.2 switch=n enabled=y phases=2 Linecode=1P_OH_AL_2/0_Rucina_2

New Line.l(r:p3rdt155lv-p3rlv280) Units=km Length=0.0101819 bus1=p3rdt155lv.1.2 bus2=p3rlv280.1.2 switch=n enabled=y phases=2 Linecode=1P_OH_AL_2/0_Rucina_2

New Line.l(r:p3rdt156lv-p3rlv281) Units=km Length=0.0152426 bus1=p3rdt156lv.1.2 bus2=p3rlv281.1.2 switch=n enabled=y phases=2 Linecode=1P_OH_AL_2/0_Rucina_2

New Line.l(r:p3rdt156lv-p3rlv285) Units=km Length=0.0152426 bus1=p3rdt156lv.1.2 bus2=p3rlv285.1.2 switch=n enabled=y phases=2 Linecode=1P_OH_AL_2/0_Rucina_2

New Line.l(r:p3rdt157lv-p3rlv282) Units=km Length=0.0676212 bus1=p3rdt157lv.1.2 bus2=p3rlv282.1.2 switch=n enabled=y phases=2 Linecode=1P_OH_AL_4/0_Zuzara_2

New Line.l(r:p3rdt157lv-p3rlv284) Units=km Length=0.0300277 bus1=p3rdt157lv.1.2 bus2=p3rlv284.1.2 switch=n enabled=y phases=2 Linecode=1P_OH_AL_4/0_Zuzara_2

New Line.l(r:p3rdt157lv-p3rlv286) Units=km Length=0.0502627 bus1=p3rdt157lv.1.2 bus2=p3rlv286.1.2 switch=n enabled=y phases=2 Linecode=1P_OH_AL_4/0_Zuzara_2

New Line.l(r:p3rdt157lv-p3rlv287) Units=km Length=0.00266027 bus1=p3rdt157lv.1.2 bus2=p3rlv287.1.2 switch=n enabled=y phases=2 Linecode=1P_OH_AL_4_Periwinkle_2

New Line.l(r:p3rdt158lv-p3rlv288) Units=km Length=0.05657 bus1=p3rdt158lv.1.2 bus2=p3rlv288.1.2 switch=n enabled=y phases=2 Linecode=1P_OH_AL_4/0_Zuzara_2

New Line.l(r:p3rdm289-p3rlv283) Units=km Length=0.00908509 bus1=p3rdm289.1.2 bus2=p3rlv283.1.2 switch=n enabled=y phases=2 Linecode=1P_OH_AL_2/0_Rucina_2

New Line.l(r:p3rdm289-p3rdt158lv) Units=km Length=0.0182342 bus1=p3rdt158lv.1.2 bus2=p3rdm289.1.2 switch=n enabled=y phases=2 Linecode=1P_OH_AL_2/0_Rucina_2

New Line.l(r:p3rdm295-p3rlv293) Units=km Length=0.0276237 bus1=p3rdm295.1.2 bus2=p3rlv293.1.2 switch=n enabled=y phases=2 Linecode=1P_OH_AL_4/0_Zuzara_2

New Line.l(r:p3rdm295-p3rlv310) Units=km Length=0.0931234 bus1=p3rdm295.1.2 bus2=p3rlv310.1.2 switch=n enabled=y phases=2 Linecode=1P_OH_AL_4/0_Zuzara_2

New Line.l(r:p3rdm295-p3rdt161lv) Units=km Length=0.0199803 bus1=p3rdt161lv.1.2 bus2=p3rdm295.1.2 switch=n enabled=y phases=2 Linecode=1P_OH_AL_2/0_Rucina_2

New Line.l(r:p3rdm296-p3rlv307) Units=km Length=0.0624215 bus1=p3rdm296.1.2 bus2=p3rlv307.1.2 switch=n enabled=y phases=2 Linecode=1P_OH_AL_4/0_Zuzara_2

New Line.l(r:p3rdm294-p3rlv292) Units=km Length=0.04026620000000001 bus1=p3rdm294.1.2 bus2=p3rlv292.1.2 switch=n enabled=y phases=2 Linecode=1P_OH_AL_4/0_Zuzara_2

New Line.l(r:p3rdm294-p3rdm296) Units=km Length=0.0183737 bus1=p3rdm296.1.2 bus2=p3rdm294.1.2 switch=n enabled=y phases=2 Linecode=1P_OH_AL_2/0_Rucina_2

New Line.l(r:p3rdm296-p3rdt161lv) Units=km Length=0.0199804 bus1=p3rdt161lv.1.2 bus2=p3rdm296.1.2 switch=n enabled=y phases=2 Linecode=1P_OH_AL_2/0_Rucina_2

New Line.l(r:p3rdt162lv-p3rlv313) Units=km Length=0.00958151 bus1=p3rdt162lv.1.2 bus2=p3rlv313.1.2 switch=n enabled=y phases=2 Linecode=1P_OH_AL_2/0_Rucina_2

New Line.l(r:p3rdm298-p3rlv294) Units=km Length=0.009642 bus1=p3rdm298.1.2 bus2=p3rlv294.1.2 switch=n enabled=y phases=2 Linecode=1P_OH_AL_2/0_Rucina_2

New Line.l(r:p3rdm298-p3rdt162lv) Units=km Length=0.0638118 bus1=p3rdt162lv.1.2 bus2=p3rdm298.1.2 switch=n enabled=y phases=2 Linecode=1P_OH_AL_4/0_Zuzara_2

New Line.l(r:p3rdm299-p3rlv312) Units=km Length=0.0186251 bus1=p3rdm299.1.2 bus2=p3rlv312.1.2 switch=n enabled=y phases=2 Linecode=1P_OH_AL_2/0_Rucina_2
