New Load.load_p3rlv1_1 conn=wye bus1=p3rlv1.1 kV=0.12 Vminpu=0.8 Vmaxpu=1.2 model=1 kW=2.1976836424562762 kvar=0.1051220183522544 Phases=1 yearly=com_kw_17157_pu

New Load.load_p3rlv1_2 conn=wye bus1=p3rlv1.2 kV=0.12 Vminpu=0.8 Vmaxpu=1.2 model=1 kW=2.1976836424562762 kvar=0.1051220183522544 Phases=1 yearly=com_kw_17157_pu

New Load.load_p3rlv2_1 conn=wye bus1=p3rlv2.1 kV=0.12 Vminpu=0.8 Vmaxpu=1.2 model=1 kW=2.1976836424562762 kvar=0.1051220183522544 Phases=1 yearly=com_kw_17157_pu

New Load.load_p3rlv2_2 conn=wye bus1=p3rlv2.2 kV=0.12 Vminpu=0.8 Vmaxpu=1.2 model=1 kW=2.1976836424562762 kvar=0.1051220183522544 Phases=1 yearly=com_kw_17157_pu

New Load.load_p3rlv3_1 conn=wye bus1=p3rlv3.1 kV=0.12 Vminpu=0.8 Vmaxpu=1.2 model=1 kW=1.9502888832917802 kvar=0.502907032927928 Phases=1 yearly=com_kw_32186_pu

New Load.load_p3rlv3_2 conn=wye bus1=p3rlv3.2 kV=0.12 Vminpu=0.8 Vmaxpu=1.2 model=1 kW=1.9502888832917802 kvar=0.502907032927928 Phases=1 yearly=com_kw_32186_pu

New Load.load_p3rlv4_1 conn=wye bus1=p3rlv4.1 kV=0.12 Vminpu=0.8 Vmaxpu=1.2 model=1 kW=2.1976836424562762 kvar=0.1051220183522544 Phases=1 yearly=com_kw_17157_pu

New Load.load_p3rlv4_2 conn=wye bus1=p3rlv4.2 kV=0.12 Vminpu=0.8 Vmaxpu=1.2 model=1 kW=2.1976836424562762 kvar=0.1051220183522544 Phases=1 yearly=com_kw_17157_pu

New Load.load_p3rlv5_1 conn=wye bus1=p3rlv5.1 kV=0.12 Vminpu=0.8 Vmaxpu=1.2 model=1 kW=2.499057743464556 kvar=0.3373788699823939 Phases=1 yearly=com_kw_41529_pu

New Load.load_p3rlv5_2 conn=wye bus1=p3rlv5.2 kV=0.12 Vminpu=0.8 Vmaxpu=1.2 model=1 kW=2.499057743464556 kvar=0.3373788699823939 Phases=1 yearly=com_kw_41529_pu

New Load.load_p3rlv6_1 conn=wye bus1=p3rlv6.1 kV=0.12 Vminpu=0.8 Vmaxpu=1.2 model=1 kW=7.204738765537915 kvar=1.3468389718673075 Phases=1 yearly=com_kw_16581_pu

New Load.load_p3rlv6_2 conn=wye bus1=p3rlv6.2 kV=0.12 Vminpu=0.8 Vmaxpu=1.2 model=1 kW=7.204738765537915 kvar=1.3468389718673075 Phases=1 yearly=com_kw_16581_pu

New Load.load_p3rlv7_1 conn=wye bus1=p3rlv7.1 kV=0.12 Vminpu=0.8 Vmaxpu=1.2 model=1 kW=3.658533491373756 kvar=0.5316075747972341 Phases=1 yearly=com_kw_33943_pu

New Load.load_p3rlv7_2 conn=wye bus1=p3rlv7.2 kV=0.12 Vminpu=0.8 Vmaxpu=1.2 model=1 kW=3.658533491373756 kvar=0.5316075747972341 Phases=1 yearly=com_kw_33943_pu

New Load.load_p3rlv8_1 conn=wye bus1=p3rlv8.1 kV=0.12 Vminpu=0.8 Vmaxpu=1.2 model=1 kW=3.4068206824033207 kvar=0.7675662276796525 Phases=1 yearly=com_kw_18314_pu

New Load.load_p3rlv8_2 conn=wye bus1=p3rlv8.2 kV=0.12 Vminpu=0.8 Vmaxpu=1.2 model=1 kW=3.4068206824033207 kvar=0.7675662276796525 Phases=1 yearly=com_kw_18314_pu

New Load.load_p3rlv9_1 conn=wye bus1=p3rlv9.1 kV=0.12 Vminpu=0.8 Vmaxpu=1.2 model=1 kW=20.497139928113135 kvar=4.843655985939276 Phases=1 yearly=res_kw_1769_pu

New Load.load_p3rlv9_2 conn=wye bus1=p3rlv9.2 kV=0.12 Vminpu=0.8 Vmaxpu=1.2 model=1 kW=20.497139928113135 kvar=4.843655985939276 Phases=1 yearly=res_kw_1769_pu

New Load.load_p3rlv10_1 conn=wye bus1=p3rlv10.1 kV=0.12 Vminpu=0.8 Vmaxpu=1.2 model=1 kW=3.299800530427192 kvar=0.3429945143852251 Phases=1 yearly=com_kw_33365_pu

New Load.load_p3rlv10_2 conn=wye bus1=p3rlv10.2 kV=0.12 Vminpu=0.8 Vmaxpu=1.2 model=1 kW=3.299800530427192 kvar=0.3429945143852251 Phases=1 yearly=com_kw_33365_pu

New Load.load_p3rlv12_1 conn=wye bus1=p3rlv12.1 kV=0.12 Vminpu=0.8 Vmaxpu=1.2 model=1 kW=2.892763602300674 kvar=0.6648734705927571 Phases=1 yearly=com_kw_33434_pu

New Load.load_p3rlv12_2 conn=wye bus1=p3rlv12.2 kV=0.12 Vminpu=0.8 Vmaxpu=1.2 model=1 kW=2.892763602300674 kvar=0.6648734705927571 Phases=1 yearly=com_kw_33434_pu

New Load.load_p3rlv13_1 conn=wye bus1=p3rlv13.1 kV=0.12 Vminpu=0.8 Vmaxpu=1.2 model=1 kW=5.611133182200907 kvar=0.07668264048246332 Phases=1 yearly=com_kw_1743_pu

New Load.load_p3rlv13_2 conn=wye bus1=p3rlv13.2 kV=0.12 Vminpu=0.8 Vmaxpu=1.2 model=1 kW=5.611133182200907 kvar=0.07668264048246332 Phases=1 yearly=com_kw_1743_pu

New Load.load_p3rlv14_1 conn=wye bus1=p3rlv14.1 kV=0.12 Vminpu=0.8 Vmaxpu=1.2 model=1 kW=1.6844632506969115 kvar=0.4071315730781585 Phases=1 yearly=com_kw_2361_pu

New Load.load_p3rlv14_2 conn=wye bus1=p3rlv14.2 kV=0.12 Vminpu=0.8 Vmaxpu=1.2 model=1 kW=1.6844632506969115 kvar=0.4071315730781585 Phases=1 yearly=com_kw_2361_pu

New Load.load_p3rlv17_1 conn=wye bus1=p3rlv17.1 kV=0.12 Vminpu=0.8 Vmaxpu=1.2 model=1 kW=1.6323867069620042 kvar=0.40255171211713736 Phases=1 yearly=com_kw_17825_pu

New Load.load_p3rlv17_2 conn=wye bus1=p3rlv17.2 kV=0.12 Vminpu=0.8 Vmaxpu=1.2 model=1 kW=1.6323867069620042 kvar=0.40255171211713736 Phases=1 yearly=com_kw_17825_pu

New Load.load_p3rlv19_1 conn=wye bus1=p3rlv19.1 kV=0.12 Vminpu=0.8 Vmaxpu=1.2 model=1 kW=1.8755168938707782 kvar=0.2009555085079469 Phases=1 yearly=com_kw_22700_pu

New Load.load_p3rlv19_2 conn=wye bus1=p3rlv19.2 kV=0.12 Vminpu=0.8 Vmaxpu=1.2 model=1 kW=1.8755168938707782 kvar=0.2009555085079469 Phases=1 yearly=com_kw_22700_pu

New Load.load_p3rlv20_1 conn=wye bus1=p3rlv20.1 kV=0.12 Vminpu=0.8 Vmaxpu=1.2 model=1 kW=3.443583112785006 kvar=0.2576306570382033 Phases=1 yearly=com_kw_32163_pu

New Load.load_p3rlv20_2 conn=wye bus1=p3rlv20.2 kV=0.12 Vminpu=0.8 Vmaxpu=1.2 model=1 kW=3.443583112785006 kvar=0.2576306570382033 Phases=1 yearly=com_kw_32163_pu

New Load.load_p3rlv21_1 conn=wye bus1=p3rlv21.1 kV=0.12 Vminpu=0.8 Vmaxpu=1.2 model=1 kW=6.9880552865485654 kvar=2.3437458071441455 Phases=1 yearly=res_kw_14206_pu

New Load.load_p3rlv21_2 conn=wye bus1=p3rlv21.2 kV=0.12 Vminpu=0.8 Vmaxpu=1.2 model=1 kW=6.9880552865485654 kvar=2.3437458071441455 Phases=1 yearly=res_kw_14206_pu

New Load.load_p3rlv25_1 conn=wye bus1=p3rlv25.1 kV=0.12 Vminpu=0.8 Vmaxpu=1.2 model=1 kW=1.2437699409140923 kvar=0.5571842941855458 Phases=1 yearly=res_kw_14805_pu

New Load.load_p3rlv25_2 conn=wye bus1=p3rlv25.2 kV=0.12 Vminpu=0.8 Vmaxpu=1.2 model=1 kW=1.2437699409140923 kvar=0.5571842941855458 Phases=1 yearly=res_kw_14805_pu

New Load.load_p3rlv27_1 conn=wye bus1=p3rlv27.1 kV=0.12 Vminpu=0.8 Vmaxpu=1.2 model=1 kW=2.1976836424562762 kvar=0.1051220183522544 Phases=1 yearly=com_kw_17157_pu

New Load.load_p3rlv27_2 conn=wye bus1=p3rlv27.2 kV=0.12 Vminpu=0.8 Vmaxpu=1.2 model=1 kW=2.1976836424562762 kvar=0.1051220183522544 Phases=1 yearly=com_kw_17157_pu

New Load.load_p3rlv28_1 conn=wye bus1=p3rlv28.1 kV=0.12 Vminpu=0.8 Vmaxpu=1.2 model=1 kW=2.1343287185333217 kvar=0.10429894918818222 Phases=1 yearly=com_kw_1789_pu

New Load.load_p3rlv28_2 conn=wye bus1=p3rlv28.2 kV=0.12 Vminpu=0.8 Vmaxpu=1.2 model=1 kW=2.1343287185333217 kvar=0.10429894918818222 Phases=1 yearly=com_kw_1789_pu

New Load.load_p3rlv57 conn=wye bus1=p3rlv57.1.2.3 kV=0.48 Vminpu=0.8 Vmaxpu=1.2 model=1 kW=45.1476564941124 kvar=13.355682615315027 Phases=3 yearly=com_kw_1642_pu

New Load.load_p3rlv63_1 conn=wye bus1=p3rlv63.1 kV=0.12 Vminpu=0.8 Vmaxpu=1.2 model=1 kW=2.0191431035669187 kvar=0.3818764773978318 Phases=1 yearly=com_kw_35553_pu

New Load.load_p3rlv63_2 conn=wye bus1=p3rlv63.2 kV=0.12 Vminpu=0.8 Vmaxpu=1.2 model=1 kW=2.0191431035669187 kvar=0.3818764773978318 Phases=1 yearly=com_kw_35553_pu

New Load.load_p3rlv64_1 conn=wye bus1=p3rlv64.1 kV=0.12 Vminpu=0.8 Vmaxpu=1.2 model=1 kW=5.435301924390596 kvar=1.349817659187634 Phases=1 yearly=com_kw_29161_pu

New Load.load_p3rlv64_2 conn=wye bus1=p3rlv64.2 kV=0.12 Vminpu=0.8 Vmaxpu=1.2 model=1 kW=5.435301924390596 kvar=1.349817659187634 Phases=1 yearly=com_kw_29161_pu

New Load.load_p3rlv65_1 conn=wye bus1=p3rlv65.1 kV=0.12 Vminpu=0.8 Vmaxpu=1.2 model=1 kW=2.6277722044378486 kvar=0.6969686665668667 Phases=1 yearly=com_kw_29191_pu

New Load.load_p3rlv65_2 conn=wye bus1=p3rlv65.2 kV=0.12 Vminpu=0.8 Vmaxpu=1.2 model=1 kW=2.6277722044378486 kvar=0.6969686665668667 Phases=1 yearly=com_kw_29191_pu

New Load.load_p3rlv66_1 conn=wye bus1=p3rlv66.1 kV=0.12 Vminpu=0.8 Vmaxpu=1.2 model=1 kW=1.9522113739764493 kvar=0.5269598949238821 Phases=1 yearly=com_kw_41612_pu

New Load.load_p3rlv66_2 conn=wye bus1=p3rlv66.2 kV=0.12 Vminpu=0.8 Vmaxpu=1.2 model=1 kW=1.9522113739764493 kvar=0.5269598949238821 Phases=1 yearly=com_kw_41612_pu

New Load.load_p3rlv67_1 conn=wye bus1=p3rlv67.1 kV=0.12 Vminpu=0.8 Vmaxpu=1.2 model=1 kW=5.455272765143665 kvar=0.8580253388886743 Phases=1 yearly=com_kw_31683_pu

New Load.load_p3rlv67_2 conn=wye bus1=p3rlv67.2 kV=0.12 Vminpu=0.8 Vmaxpu=1.2 model=1 kW=5.455272765143665 kvar=0.8580253388886743 Phases=1 yearly=com_kw_31683_pu

New Load.load_p3rlv68_1 conn=wye bus1=p3rlv68.1 kV=0.12 Vminpu=0.8 Vmaxpu=1.2 model=1 kW=3.772462172331776 kvar=1.0755387210843397 Phases=1 yearly=com_kw_29082_pu

New Load.load_p3rlv68_2 conn=wye bus1=p3rlv68.2 kV=0.12 Vminpu=0.8 Vmaxpu=1.2 model=1 kW=3.772462172331776 kvar=1.0755387210843397 Phases=1 yearly=com_kw_29082_pu

New Load.load_p3rlv69_1 conn=wye bus1=p3rlv69.1 kV=0.12 Vminpu=0.8 Vmaxpu=1.2 model=1 kW=7.277407972834568 kvar=0.4845218962383679 Phases=1 yearly=com_kw_22736_pu

New Load.load_p3rlv69_2 conn=wye bus1=p3rlv69.2 kV=0.12 Vminpu=0.8 Vmaxpu=1.2 model=1 kW=7.277407972834568 kvar=0.4845218962383679 Phases=1 yearly=com_kw_22736_pu

New Load.load_p3rlv70_1 conn=wye bus1=p3rlv70.1 kV=0.12 Vminpu=0.8 Vmaxpu=1.2 model=1 kW=2.1976836424562762 kvar=0.1051220183522544 Phases=1 yearly=com_kw_17157_pu

New Load.load_p3rlv70_2 conn=wye bus1=p3rlv70.2 kV=0.12 Vminpu=0.8 Vmaxpu=1.2 model=1 kW=2.1976836424562762 kvar=0.1051220183522544 Phases=1 yearly=com_kw_17157_pu

New Load.load_p3rlv71_1 conn=wye bus1=p3rlv71.1 kV=0.12 Vminpu=0.8 Vmaxpu=1.2 model=1 kW=1.838058295866342 kvar=0.49932281885782887 Phases=1 yearly=com_kw_31626_pu

New Load.load_p3rlv71_2 conn=wye bus1=p3rlv71.2 kV=0.12 Vminpu=0.8 Vmaxpu=1.2 model=1 kW=1.838058295866342 kvar=0.49932281885782887 Phases=1 yearly=com_kw_31626_pu

New Load.load_p3rlv72_1 conn=wye bus1=p3rlv72.1 kV=0.12 Vminpu=0.8 Vmaxpu=1.2 model=1 kW=4.369598840091144 kvar=1.0239922180589605 Phases=1 yearly=com_kw_2499_pu

New Load.load_p3rlv72_2 conn=wye bus1=p3rlv72.2 kV=0.12 Vminpu=0.8 Vmaxpu=1.2 model=1 kW=4.369598840091144 kvar=1.0239922180589605 Phases=1 yearly=com_kw_2499_pu

New Load.load_p3rlv73_1 conn=wye bus1=p3rlv73.1 kV=0.12 Vminpu=0.8 Vmaxpu=1.2 model=1 kW=2.9559171691321495 kvar=0.018922139033990728 Phases=1 yearly=com_kw_19739_pu

New Load.load_p3rlv73_2 conn=wye bus1=p3rlv73.2 kV=0.12 Vminpu=0.8 Vmaxpu=1.2 model=1 kW=2.9559171691321495 kvar=0.018922139033990728 Phases=1 yearly=com_kw_19739_pu

New Load.load_p3rlv74_1 conn=wye bus1=p3rlv74.1 kV=0.12 Vminpu=0.8 Vmaxpu=1.2 model=1 kW=2.2769071780208345 kvar=0.4029118207034132 Phases=1 yearly=com_kw_29321_pu

New Load.load_p3rlv74_2 conn=wye bus1=p3rlv74.2 kV=0.12 Vminpu=0.8 Vmaxpu=1.2 model=1 kW=2.2769071780208345 kvar=0.4029118207034132 Phases=1 yearly=com_kw_29321_pu

New Load.load_p3rlv75_1 conn=wye bus1=p3rlv75.1 kV=0.12 Vminpu=0.8 Vmaxpu=1.2 model=1 kW=4.803203358177196 kvar=1.3986106494521144 Phases=1 yearly=res_kw_9589_pu

New Load.load_p3rlv75_2 conn=wye bus1=p3rlv75.2 kV=0.12 Vminpu=0.8 Vmaxpu=1.2 model=1 kW=4.803203358177196 kvar=1.3986106494521144 Phases=1 yearly=res_kw_9589_pu

New Load.load_p3rlv76_1 conn=wye bus1=p3rlv76.1 kV=0.12 Vminpu=0.8 Vmaxpu=1.2 model=1 kW=3.025577912376512 kvar=0.6479907691217454 Phases=1 yearly=com_kw_35494_pu

New Load.load_p3rlv76_2 conn=wye bus1=p3rlv76.2 kV=0.12 Vminpu=0.8 Vmaxpu=1.2 model=1 kW=3.025577912376512 kvar=0.6479907691217454 Phases=1 yearly=com_kw_35494_pu

New Load.load_p3rlv77_1 conn=wye bus1=p3rlv77.1 kV=0.12 Vminpu=0.8 Vmaxpu=1.2 model=1 kW=6.145652190945947 kvar=0.5294773143239021 Phases=1 yearly=com_kw_31676_pu

New Load.load_p3rlv77_2 conn=wye bus1=p3rlv77.2 kV=0.12 Vminpu=0.8 Vmaxpu=1.2 model=1 kW=6.145652190945947 kvar=0.5294773143239021 Phases=1 yearly=com_kw_31676_pu

New Load.load_p3rlv79_1 conn=wye bus1=p3rlv79.1 kV=0.12 Vminpu=0.8 Vmaxpu=1.2 model=1 kW=2.140962173014189 kvar=0.10805830108563602 Phases=1 yearly=com_kw_39906_pu

New Load.load_p3rlv79_2 conn=wye bus1=p3rlv79.2 kV=0.12 Vminpu=0.8 Vmaxpu=1.2 model=1 kW=2.140962173014189 kvar=0.10805830108563602 Phases=1 yearly=com_kw_39906_pu

New Load.load_p3rlv112_1 conn=wye bus1=p3rlv112.1 kV=0.12 Vminpu=0.8 Vmaxpu=1.2 model=1 kW=4.639612501586281 kvar=1.0977377571892493 Phases=1 yearly=res_kw_3633_pu

New Load.load_p3rlv112_2 conn=wye bus1=p3rlv112.2 kV=0.12 Vminpu=0.8 Vmaxpu=1.2 model=1 kW=4.639612501586281 kvar=1.0977377571892493 Phases=1 yearly=res_kw_3633_pu

New Load.load_p3rlv113_1 conn=wye bus1=p3rlv113.1 kV=0.12 Vminpu=0.8 Vmaxpu=1.2 model=1 kW=6.787871974238605 kvar=0.2841122982378042 Phases=1 yearly=res_kw_1715_pu

New Load.load_p3rlv113_2 conn=wye bus1=p3rlv113.2 kV=0.12 Vminpu=0.8 Vmaxpu=1.2 model=1 kW=6.787871974238605 kvar=0.2841122982378042 Phases=1 yearly=res_kw_1715_pu

New Load.load_p3rlv114_1 conn=wye bus1=p3rlv114.1 kV=0.12 Vminpu=0.8 Vmaxpu=1.2 model=1 kW=1.5290895920961123 kvar=0.36247808422876804 Phases=1 yearly=com_kw_32053_pu

New Load.load_p3rlv114_2 conn=wye bus1=p3rlv114.2 kV=0.12 Vminpu=0.8 Vmaxpu=1.2 model=1 kW=1.5290895920961123 kvar=0.36247808422876804 Phases=1 yearly=com_kw_32053_pu

New Load.load_p3rlv115_1 conn=wye bus1=p3rlv115.1 kV=0.12 Vminpu=0.8 Vmaxpu=1.2 model=1 kW=2.1838414120774927 kvar=0.7719548317446643 Phases=1 yearly=res_kw_12610_pu

New Load.load_p3rlv115_2 conn=wye bus1=p3rlv115.2 kV=0.12 Vminpu=0.8 Vmaxpu=1.2 model=1 kW=2.1838414120774927 kvar=0.7719548317446643 Phases=1 yearly=res_kw_12610_pu

New Load.load_p3rlv116_1 conn=wye bus1=p3rlv116.1 kV=0.12 Vminpu=0.8 Vmaxpu=1.2 model=1 kW=6.716769807614063 kvar=0.7195554616535115 Phases=1 yearly=res_kw_3228_pu

New Load.load_p3rlv116_2 conn=wye bus1=p3rlv116.2 kV=0.12 Vminpu=0.8 Vmaxpu=1.2 model=1 kW=6.716769807614063 kvar=0.7195554616535115 Phases=1 yearly=res_kw_3228_pu

New Load.load_p3rlv117_1 conn=wye bus1=p3rlv117.1 kV=0.12 Vminpu=0.8 Vmaxpu=1.2 model=1 kW=5.43714386332862 kvar=1.1094905364655858 Phases=1 yearly=res_kw_14000_pu

New Load.load_p3rlv117_2 conn=wye bus1=p3rlv117.2 kV=0.12 Vminpu=0.8 Vmaxpu=1.2 model=1 kW=5.43714386332862 kvar=1.1094905364655858 Phases=1 yearly=res_kw_14000_pu

New Load.load_p3rlv118_1 conn=wye bus1=p3rlv118.1 kV=0.12 Vminpu=0.8 Vmaxpu=1.2 model=1 kW=3.965154260277072 kvar=0.6307595255595673 Phases=1 yearly=res_kw_4032_pu

New Load.load_p3rlv118_2 conn=wye bus1=p3rlv118.2 kV=0.12 Vminpu=0.8 Vmaxpu=1.2 model=1 kW=3.965154260277072 kvar=0.6307595255595673 Phases=1 yearly=res_kw_4032_pu

New Load.load_p3rlv119_1 conn=wye bus1=p3rlv119.1 kV=0.12 Vminpu=0.8 Vmaxpu=1.2 model=1 kW=1.7525659977146846 kvar=0.77846781364839 Phases=1 yearly=res_kw_9310_pu

New Load.load_p3rlv119_2 conn=wye bus1=p3rlv119.2 kV=0.12 Vminpu=0.8 Vmaxpu=1.2 model=1 kW=1.7525659977146846 kvar=0.77846781364839 Phases=1 yearly=res_kw_9310_pu

New Load.load_p3rlv120_1 conn=wye bus1=p3rlv120.1 kV=0.12 Vminpu=0.8 Vmaxpu=1.2 model=1 kW=0.7812856221781264 kvar=0.29493523962554685 Phases=1 yearly=res_kw_11820_pu

New Load.load_p3rlv120_2 conn=wye bus1=p3rlv120.2 kV=0.12 Vminpu=0.8 Vmaxpu=1.2 model=1 kW=0.7812856221781264 kvar=0.29493523962554685 Phases=1 yearly=res_kw_11820_pu

New Load.load_p3rlv121_1 conn=wye bus1=p3rlv121.1 kV=0.12 Vminpu=0.8 Vmaxpu=1.2 model=1 kW=2.8945687345645994 kvar=0.7392780255350366 Phases=1 yearly=res_kw_489_pu

New Load.load_p3rlv121_2 conn=wye bus1=p3rlv121.2 kV=0.12 Vminpu=0.8 Vmaxpu=1.2 model=1 kW=2.8945687345645994 kvar=0.7392780255350366 Phases=1 yearly=res_kw_489_pu

New Load.load_p3rlv122_1 conn=wye bus1=p3rlv122.1 kV=0.12 Vminpu=0.8 Vmaxpu=1.2 model=1 kW=7.315343347041165 kvar=1.4870718604937263 Phases=1 yearly=res_kw_5722_pu

New Load.load_p3rlv122_2 conn=wye bus1=p3rlv122.2 kV=0.12 Vminpu=0.8 Vmaxpu=1.2 model=1 kW=7.315343347041165 kvar=1.4870718604937263 Phases=1 yearly=res_kw_5722_pu

New Load.load_p3rlv123_1 conn=wye bus1=p3rlv123.1 kV=0.12 Vminpu=0.8 Vmaxpu=1.2 model=1 kW=3.8047264527626514 kvar=0.2869646778897783 Phases=1 yearly=res_kw_6602_pu

New Load.load_p3rlv123_2 conn=wye bus1=p3rlv123.2 kV=0.12 Vminpu=0.8 Vmaxpu=1.2 model=1 kW=3.8047264527626514 kvar=0.2869646778897783 Phases=1 yearly=res_kw_6602_pu

New Load.load_p3rlv124_1 conn=wye bus1=p3rlv124.1 kV=0.12 Vminpu=0.8 Vmaxpu=1.2 model=1 kW=2.1976836424562762 kvar=0.1051220183522544 Phases=1 yearly=com_kw_17157_pu

New Load.load_p3rlv124_2 conn=wye bus1=p3rlv124.2 kV=0.12 Vminpu=0.8 Vmaxpu=1.2 model=1 kW=2.1976836424562762 kvar=0.1051220183522544 Phases=1 yearly=com_kw_17157_pu

New Load.load_p3rlv125_1 conn=wye bus1=p3rlv125.1 kV=0.12 Vminpu=0.8 Vmaxpu=1.2 model=1 kW=1.685213211371405 kvar=0.7584354740780123 Phases=1 yearly=res_kw_10142_pu

New Load.load_p3rlv125_2 conn=wye bus1=p3rlv125.2 kV=0.12 Vminpu=0.8 Vmaxpu=1.2 model=1 kW=1.685213211371405 kvar=0.7584354740780123 Phases=1 yearly=res_kw_10142_pu

New Load.load_p3rlv126_1 conn=wye bus1=p3rlv126.1 kV=0.12 Vminpu=0.8 Vmaxpu=1.2 model=1 kW=4.095937077188644 kvar=0.9158391685680531 Phases=1 yearly=res_kw_13252_pu

New Load.load_p3rlv126_2 conn=wye bus1=p3rlv126.2 kV=0.12 Vminpu=0.8 Vmaxpu=1.2 model=1 kW=4.095937077188644 kvar=0.9158391685680531 Phases=1 yearly=res_kw_13252_pu

New Load.load_p3rlv127_1 conn=wye bus1=p3rlv127.1 kV=0.12 Vminpu=0.8 Vmaxpu=1.2 model=1 kW=3.6878718453957338 kvar=0.9600190343762964 Phases=1 yearly=res_kw_8497_pu

New Load.load_p3rlv127_2 conn=wye bus1=p3rlv127.2 kV=0.12 Vminpu=0.8 Vmaxpu=1.2 model=1 kW=3.6878718453957338 kvar=0.9600190343762964 Phases=1 yearly=res_kw_8497_pu

New Load.load_p3rlv128_1 conn=wye bus1=p3rlv128.1 kV=0.12 Vminpu=0.8 Vmaxpu=1.2 model=1 kW=4.241859724602562 kvar=1.250877899038581 Phases=1 yearly=res_kw_1646_pu

New Load.load_p3rlv128_2 conn=wye bus1=p3rlv128.2 kV=0.12 Vminpu=0.8 Vmaxpu=1.2 model=1 kW=4.241859724602562 kvar=1.250877899038581 Phases=1 yearly=res_kw_1646_pu

New Load.load_p3rlv129_1 conn=wye bus1=p3rlv129.1 kV=0.12 Vminpu=0.8 Vmaxpu=1.2 model=1 kW=5.0580031287214835 kvar=1.8288316317479205 Phases=1 yearly=res_kw_12981_pu

New Load.load_p3rlv129_2 conn=wye bus1=p3rlv129.2 kV=0.12 Vminpu=0.8 Vmaxpu=1.2 model=1 kW=5.0580031287214835 kvar=1.8288316317479205 Phases=1 yearly=res_kw_12981_pu

New Load.load_p3rlv130_1 conn=wye bus1=p3rlv130.1 kV=0.12 Vminpu=0.8 Vmaxpu=1.2 model=1 kW=3.625319777434352 kvar=0.6268673114222736 Phases=1 yearly=res_kw_8349_pu

New Load.load_p3rlv130_2 conn=wye bus1=p3rlv130.2 kV=0.12 Vminpu=0.8 Vmaxpu=1.2 model=1 kW=3.625319777434352 kvar=0.6268673114222736 Phases=1 yearly=res_kw_8349_pu

New Load.load_p3rlv131_1 conn=wye bus1=p3rlv131.1 kV=0.12 Vminpu=0.8 Vmaxpu=1.2 model=1 kW=5.301148943546928 kvar=1.0207210821163883 Phases=1 yearly=res_kw_4602_pu

New Load.load_p3rlv131_2 conn=wye bus1=p3rlv131.2 kV=0.12 Vminpu=0.8 Vmaxpu=1.2 model=1 kW=5.301148943546928 kvar=1.0207210821163883 Phases=1 yearly=res_kw_4602_pu

New Load.load_p3rlv132_1 conn=wye bus1=p3rlv132.1 kV=0.12 Vminpu=0.8 Vmaxpu=1.2 model=1 kW=1.7188002681357404 kvar=0.9474547211502857 Phases=1 yearly=res_kw_14289_pu

New Load.load_p3rlv132_2 conn=wye bus1=p3rlv132.2 kV=0.12 Vminpu=0.8 Vmaxpu=1.2 model=1 kW=1.7188002681357404 kvar=0.9474547211502857 Phases=1 yearly=res_kw_14289_pu

New Load.load_p3rlv133_1 conn=wye bus1=p3rlv133.1 kV=0.12 Vminpu=0.8 Vmaxpu=1.2 model=1 kW=2.3439175585507637 kvar=0.8866404836608991 Phases=1 yearly=res_kw_7349_pu

New Load.load_p3rlv133_2 conn=wye bus1=p3rlv133.2 kV=0.12 Vminpu=0.8 Vmaxpu=1.2 model=1 kW=2.3439175585507637 kvar=0.8866404836608991 Phases=1 yearly=res_kw_7349_pu

New Load.load_p3rlv134_1 conn=wye bus1=p3rlv134.1 kV=0.12 Vminpu=0.8 Vmaxpu=1.2 model=1 kW=11.50560414136449 kvar=1.6096367981531994 Phases=1 yearly=res_kw_5921_pu

New Load.load_p3rlv134_2 conn=wye bus1=p3rlv134.2 kV=0.12 Vminpu=0.8 Vmaxpu=1.2 model=1 kW=11.50560414136449 kvar=1.6096367981531994 Phases=1 yearly=res_kw_5921_pu

New Load.load_p3rlv135_1 conn=wye bus1=p3rlv135.1 kV=0.12 Vminpu=0.8 Vmaxpu=1.2 model=1 kW=3.414314800821733 kvar=1.0284846902626992 Phases=1 yearly=res_kw_10390_pu

New Load.load_p3rlv135_2 conn=wye bus1=p3rlv135.2 kV=0.12 Vminpu=0.8 Vmaxpu=1.2 model=1 kW=3.414314800821733 kvar=1.0284846902626992 Phases=1 yearly=res_kw_10390_pu

New Load.load_p3rlv136_1 conn=wye bus1=p3rlv136.1 kV=0.12 Vminpu=0.8 Vmaxpu=1.2 model=1 kW=0.6697995975485909 kvar=0.41657408993223344 Phases=1 yearly=res_kw_6096_pu

New Load.load_p3rlv136_2 conn=wye bus1=p3rlv136.2 kV=0.12 Vminpu=0.8 Vmaxpu=1.2 model=1 kW=0.6697995975485909 kvar=0.41657408993223344 Phases=1 yearly=res_kw_6096_pu

New Load.load_p3rlv137_1 conn=wye bus1=p3rlv137.1 kV=0.12 Vminpu=0.8 Vmaxpu=1.2 model=1 kW=3.483789453463029 kvar=1.464903160692747 Phases=1 yearly=res_kw_2859_pu

New Load.load_p3rlv137_2 conn=wye bus1=p3rlv137.2 kV=0.12 Vminpu=0.8 Vmaxpu=1.2 model=1 kW=3.483789453463029 kvar=1.464903160692747 Phases=1 yearly=res_kw_2859_pu

New Load.load_p3rlv138_1 conn=wye bus1=p3rlv138.1 kV=0.12 Vminpu=0.8 Vmaxpu=1.2 model=1 kW=3.8047264527626514 kvar=0.2869646778897783 Phases=1 yearly=res_kw_6602_pu

New Load.load_p3rlv138_2 conn=wye bus1=p3rlv138.2 kV=0.12 Vminpu=0.8 Vmaxpu=1.2 model=1 kW=3.8047264527626514 kvar=0.2869646778897783 Phases=1 yearly=res_kw_6602_pu

New Load.load_p3rlv139_1 conn=wye bus1=p3rlv139.1 kV=0.12 Vminpu=0.8 Vmaxpu=1.2 model=1 kW=7.8623407394536935 kvar=0.5578331106170566 Phases=1 yearly=com_kw_17095_pu

New Load.load_p3rlv139_2 conn=wye bus1=p3rlv139.2 kV=0.12 Vminpu=0.8 Vmaxpu=1.2 model=1 kW=7.8623407394536935 kvar=0.5578331106170566 Phases=1 yearly=com_kw_17095_pu

New Load.load_p3rlv140_1 conn=wye bus1=p3rlv140.1 kV=0.12 Vminpu=0.8 Vmaxpu=1.2 model=1 kW=1.6770161139508808 kvar=0.8672119324835039 Phases=1 yearly=res_kw_7343_pu

New Load.load_p3rlv140_2 conn=wye bus1=p3rlv140.2 kV=0.12 Vminpu=0.8 Vmaxpu=1.2 model=1 kW=1.6770161139508808 kvar=0.8672119324835039 Phases=1 yearly=res_kw_7343_pu

New Load.load_p3rlv141_1 conn=wye bus1=p3rlv141.1 kV=0.12 Vminpu=0.8 Vmaxpu=1.2 model=1 kW=4.025862244582246 kvar=1.1423616747148284 Phases=1 yearly=res_kw_12348_pu

New Load.load_p3rlv141_2 conn=wye bus1=p3rlv141.2 kV=0.12 Vminpu=0.8 Vmaxpu=1.2 model=1 kW=4.025862244582246 kvar=1.1423616747148284 Phases=1 yearly=res_kw_12348_pu

New Load.load_p3rlv142_1 conn=wye bus1=p3rlv142.1 kV=0.12 Vminpu=0.8 Vmaxpu=1.2 model=1 kW=2.2197968815902716 kvar=0.5722717828994575 Phases=1 yearly=com_kw_1541_pu

New Load.load_p3rlv142_2 conn=wye bus1=p3rlv142.2 kV=0.12 Vminpu=0.8 Vmaxpu=1.2 model=1 kW=2.2197968815902716 kvar=0.5722717828994575 Phases=1 yearly=com_kw_1541_pu

New Load.load_p3rlv143_1 conn=wye bus1=p3rlv143.1 kV=0.12 Vminpu=0.8 Vmaxpu=1.2 model=1 kW=2.663718263496191 kvar=0.5961086844307331 Phases=1 yearly=res_kw_15065_pu

New Load.load_p3rlv143_2 conn=wye bus1=p3rlv143.2 kV=0.12 Vminpu=0.8 Vmaxpu=1.2 model=1 kW=2.663718263496191 kvar=0.5961086844307331 Phases=1 yearly=res_kw_15065_pu

New Load.load_p3rlv144_1 conn=wye bus1=p3rlv144.1 kV=0.12 Vminpu=0.8 Vmaxpu=1.2 model=1 kW=3.1297266009624254 kvar=0.7800632164373715 Phases=1 yearly=res_kw_4690_pu

New Load.load_p3rlv144_2 conn=wye bus1=p3rlv144.2 kV=0.12 Vminpu=0.8 Vmaxpu=1.2 model=1 kW=3.1297266009624254 kvar=0.7800632164373715 Phases=1 yearly=res_kw_4690_pu

New Load.load_p3rlv145_1 conn=wye bus1=p3rlv145.1 kV=0.12 Vminpu=0.8 Vmaxpu=1.2 model=1 kW=7.8801930784369265 kvar=1.0115137645096066 Phases=1 yearly=res_kw_13840_pu

New Load.load_p3rlv145_2 conn=wye bus1=p3rlv145.2 kV=0.12 Vminpu=0.8 Vmaxpu=1.2 model=1 kW=7.8801930784369265 kvar=1.0115137645096066 Phases=1 yearly=res_kw_13840_pu

New Load.load_p3rlv146_1 conn=wye bus1=p3rlv146.1 kV=0.12 Vminpu=0.8 Vmaxpu=1.2 model=1 kW=3.075480105983799 kvar=0.9881383339436148 Phases=1 yearly=res_kw_10595_pu

New Load.load_p3rlv146_2 conn=wye bus1=p3rlv146.2 kV=0.12 Vminpu=0.8 Vmaxpu=1.2 model=1 kW=3.075480105983799 kvar=0.9881383339436148 Phases=1 yearly=res_kw_10595_pu

New Load.load_p3rlv147_1 conn=wye bus1=p3rlv147.1 kV=0.12 Vminpu=0.8 Vmaxpu=1.2 model=1 kW=0.6524083002915736 kvar=0.21201745820683848 Phases=1 yearly=res_kw_14133_pu

New Load.load_p3rlv147_2 conn=wye bus1=p3rlv147.2 kV=0.12 Vminpu=0.8 Vmaxpu=1.2 model=1 kW=0.6524083002915736 kvar=0.21201745820683848 Phases=1 yearly=res_kw_14133_pu

New Load.load_p3rlv148_1 conn=wye bus1=p3rlv148.1 kV=0.12 Vminpu=0.8 Vmaxpu=1.2 model=1 kW=3.9614713621548963 kvar=1.170985110067395 Phases=1 yearly=res_kw_10928_pu

New Load.load_p3rlv148_2 conn=wye bus1=p3rlv148.2 kV=0.12 Vminpu=0.8 Vmaxpu=1.2 model=1 kW=3.9614713621548963 kvar=1.170985110067395 Phases=1 yearly=res_kw_10928_pu

New Load.load_p3rlv149_1 conn=wye bus1=p3rlv149.1 kV=0.12 Vminpu=0.8 Vmaxpu=1.2 model=1 kW=1.685213211371405 kvar=0.7584354740780123 Phases=1 yearly=res_kw_10142_pu

New Load.load_p3rlv149_2 conn=wye bus1=p3rlv149.2 kV=0.12 Vminpu=0.8 Vmaxpu=1.2 model=1 kW=1.685213211371405 kvar=0.7584354740780123 Phases=1 yearly=res_kw_10142_pu

New Load.load_p3rlv150_1 conn=wye bus1=p3rlv150.1 kV=0.12 Vminpu=0.8 Vmaxpu=1.2 model=1 kW=2.618088489787842 kvar=0.20923793518521916 Phases=1 yearly=res_kw_10572_pu

New Load.load_p3rlv150_2 conn=wye bus1=p3rlv150.2 kV=0.12 Vminpu=0.8 Vmaxpu=1.2 model=1 kW=2.618088489787842 kvar=0.20923793518521916 Phases=1 yearly=res_kw_10572_pu

New Load.load_p3rlv151_1 conn=wye bus1=p3rlv151.1 kV=0.12 Vminpu=0.8 Vmaxpu=1.2 model=1 kW=2.695474118531042 kvar=0.5608961517823988 Phases=1 yearly=res_kw_5091_pu

New Load.load_p3rlv151_2 conn=wye bus1=p3rlv151.2 kV=0.12 Vminpu=0.8 Vmaxpu=1.2 model=1 kW=2.695474118531042 kvar=0.5608961517823988 Phases=1 yearly=res_kw_5091_pu

New Load.load_p3rlv152_1 conn=wye bus1=p3rlv152.1 kV=0.12 Vminpu=0.8 Vmaxpu=1.2 model=1 kW=3.625319777434352 kvar=0.6268673114222736 Phases=1 yearly=res_kw_8349_pu

New Load.load_p3rlv152_2 conn=wye bus1=p3rlv152.2 kV=0.12 Vminpu=0.8 Vmaxpu=1.2 model=1 kW=3.625319777434352 kvar=0.6268673114222736 Phases=1 yearly=res_kw_8349_pu

New Load.load_p3rlv153_1 conn=wye bus1=p3rlv153.1 kV=0.12 Vminpu=0.8 Vmaxpu=1.2 model=1 kW=0.9518333270985427 kvar=0.3340330193202704 Phases=1 yearly=res_kw_13794_pu

New Load.load_p3rlv153_2 conn=wye bus1=p3rlv153.2 kV=0.12 Vminpu=0.8 Vmaxpu=1.2 model=1 kW=0.9518333270985427 kvar=0.3340330193202704 Phases=1 yearly=res_kw_13794_pu

New Load.load_p3rlv154_1 conn=wye bus1=p3rlv154.1 kV=0.12 Vminpu=0.8 Vmaxpu=1.2 model=1 kW=1.6428241782956607 kvar=0.34384297786677 Phases=1 yearly=res_kw_7091_pu

New Load.load_p3rlv154_2 conn=wye bus1=p3rlv154.2 kV=0.12 Vminpu=0.8 Vmaxpu=1.2 model=1 kW=1.6428241782956607 kvar=0.34384297786677 Phases=1 yearly=res_kw_7091_pu

New Load.load_p3rlv155_1 conn=wye bus1=p3rlv155.1 kV=0.12 Vminpu=0.8 Vmaxpu=1.2 model=1 kW=2.3439175585507637 kvar=0.8866404836608991 Phases=1 yearly=res_kw_7349_pu

New Load.load_p3rlv155_2 conn=wye bus1=p3rlv155.2 kV=0.12 Vminpu=0.8 Vmaxpu=1.2 model=1 kW=2.3439175585507637 kvar=0.8866404836608991 Phases=1 yearly=res_kw_7349_pu

New Load.load_p3rlv156_1 conn=wye bus1=p3rlv156.1 kV=0.12 Vminpu=0.8 Vmaxpu=1.2 model=1 kW=3.625319777434352 kvar=0.6268673114222736 Phases=1 yearly=res_kw_8349_pu

New Load.load_p3rlv156_2 conn=wye bus1=p3rlv156.2 kV=0.12 Vminpu=0.8 Vmaxpu=1.2 model=1 kW=3.625319777434352 kvar=0.6268673114222736 Phases=1 yearly=res_kw_8349_pu

New Load.load_p3rlv157_1 conn=wye bus1=p3rlv157.1 kV=0.12 Vminpu=0.8 Vmaxpu=1.2 model=1 kW=3.8155281659083577 kvar=1.2850519432601288 Phases=1 yearly=res_kw_11867_pu

New Load.load_p3rlv157_2 conn=wye bus1=p3rlv157.2 kV=0.12 Vminpu=0.8 Vmaxpu=1.2 model=1 kW=3.8155281659083577 kvar=1.2850519432601288 Phases=1 yearly=res_kw_11867_pu

New Load.load_p3rlv158_1 conn=wye bus1=p3rlv158.1 kV=0.12 Vminpu=0.8 Vmaxpu=1.2 model=1 kW=1.799969889792979 kvar=0.7055837837850989 Phases=1 yearly=res_kw_3219_pu

New Load.load_p3rlv158_2 conn=wye bus1=p3rlv158.2 kV=0.12 Vminpu=0.8 Vmaxpu=1.2 model=1 kW=1.799969889792979 kvar=0.7055837837850989 Phases=1 yearly=res_kw_3219_pu

New Load.load_p3rlv185_1 conn=wye bus1=p3rlv185.1 kV=0.12 Vminpu=0.8 Vmaxpu=1.2 model=1 kW=4.709076706416643 kvar=0.09250802079027616 Phases=1 yearly=res_kw_8820_pu

New Load.load_p3rlv185_2 conn=wye bus1=p3rlv185.2 kV=0.12 Vminpu=0.8 Vmaxpu=1.2 model=1 kW=4.709076706416643 kvar=0.09250802079027616 Phases=1 yearly=res_kw_8820_pu

New Load.load_p3rlv186_1 conn=wye bus1=p3rlv186.1 kV=0.12 Vminpu=0.8 Vmaxpu=1.2 model=1 kW=1.838058295866342 kvar=0.49932281885782887 Phases=1 yearly=com_kw_31626_pu

New Load.load_p3rlv186_2 conn=wye bus1=p3rlv186.2 kV=0.12 Vminpu=0.8 Vmaxpu=1.2 model=1 kW=1.838058295866342 kvar=0.49932281885782887 Phases=1 yearly=com_kw_31626_pu

New Load.load_p3rlv187_1 conn=wye bus1=p3rlv187.1 kV=0.12 Vminpu=0.8 Vmaxpu=1.2 model=1 kW=1.839175601618853 kvar=0.4557221316666175 Phases=1 yearly=com_kw_17204_pu

New Load.load_p3rlv187_2 conn=wye bus1=p3rlv187.2 kV=0.12 Vminpu=0.8 Vmaxpu=1.2 model=1 kW=1.839175601618853 kvar=0.4557221316666175 Phases=1 yearly=com_kw_17204_pu

New Load.load_p3rlv188_1 conn=wye bus1=p3rlv188.1 kV=0.12 Vminpu=0.8 Vmaxpu=1.2 model=1 kW=3.443583112785006 kvar=0.2576306570382033 Phases=1 yearly=com_kw_32163_pu

New Load.load_p3rlv188_2 conn=wye bus1=p3rlv188.2 kV=0.12 Vminpu=0.8 Vmaxpu=1.2 model=1 kW=3.443583112785006 kvar=0.2576306570382033 Phases=1 yearly=com_kw_32163_pu

New Load.load_p3rlv189_1 conn=wye bus1=p3rlv189.1 kV=0.12 Vminpu=0.8 Vmaxpu=1.2 model=1 kW=2.0191431035669187 kvar=0.3818764773978318 Phases=1 yearly=com_kw_35553_pu

New Load.load_p3rlv189_2 conn=wye bus1=p3rlv189.2 kV=0.12 Vminpu=0.8 Vmaxpu=1.2 model=1 kW=2.0191431035669187 kvar=0.3818764773978318 Phases=1 yearly=com_kw_35553_pu

New Load.load_p3rlv190_1 conn=wye bus1=p3rlv190.1 kV=0.12 Vminpu=0.8 Vmaxpu=1.2 model=1 kW=2.109177669729331 kvar=0.5486693289215298 Phases=1 yearly=com_kw_29611_pu

New Load.load_p3rlv190_2 conn=wye bus1=p3rlv190.2 kV=0.12 Vminpu=0.8 Vmaxpu=1.2 model=1 kW=2.109177669729331 kvar=0.5486693289215298 Phases=1 yearly=com_kw_29611_pu

New Load.load_p3rlv191_1 conn=wye bus1=p3rlv191.1 kV=0.12 Vminpu=0.8 Vmaxpu=1.2 model=1 kW=2.109177669729331 kvar=0.5486693289215298 Phases=1 yearly=com_kw_29611_pu

New Load.load_p3rlv191_2 conn=wye bus1=p3rlv191.2 kV=0.12 Vminpu=0.8 Vmaxpu=1.2 model=1 kW=2.109177669729331 kvar=0.5486693289215298 Phases=1 yearly=com_kw_29611_pu
