New Loadshape.res_kw_1769_pu npts= 35040 interval=0.25 mult = (file=profiles/res_kw_1769_pu.csv) qmult = (file=profiles/res_kvar_1769_pu.csv)

New Loadshape.res_kw_14206_pu npts= 35040 interval=0.25 mult = (file=profiles/res_kw_14206_pu.csv) qmult = (file=profiles/res_kvar_14206_pu.csv)

New Loadshape.res_kw_14805_pu npts= 35040 interval=0.25 mult = (file=profiles/res_kw_14805_pu.csv) qmult = (file=profiles/res_kvar_14805_pu.csv)

New Loadshape.res_kw_9589_pu npts= 35040 interval=0.25 mult = (file=profiles/res_kw_9589_pu.csv) qmult = (file=profiles/res_kvar_9589_pu.csv)

New Loadshape.res_kw_3633_pu npts= 35040 interval=0.25 mult = (file=profiles/res_kw_3633_pu.csv) qmult = (file=profiles/res_kvar_3633_pu.csv)

New Loadshape.res_kw_1715_pu npts= 35040 interval=0.25 mult = (file=profiles/res_kw_1715_pu.csv) qmult = (file=profiles/res_kvar_1715_pu.csv)

New Loadshape.res_kw_12610_pu npts= 35040 interval=0.25 mult = (file=profiles/res_kw_12610_pu.csv) qmult = (file=profiles/res_kvar_12610_pu.csv)

New Loadshape.res_kw_3228_pu npts= 35040 interval=0.25 mult = (file=profiles/res_kw_3228_pu.csv) qmult = (file=profiles/res_kvar_3228_pu.csv)

New Loadshape.res_kw_14000_pu npts= 35040 interval=0.25 mult = (file=profiles/res_kw_14000_pu.csv) qmult = (file=profiles/res_kvar_14000_pu.csv)

New Loadshape.res_kw_4032_pu npts= 35040 interval=0.25 mult = (file=profiles/res_kw_4032_pu.csv) qmult = (file=profiles/res_kvar_4032_pu.csv)

New Loadshape.res_kw_9310_pu npts= 35040 interval=0.25 mult = (file=profiles/res_kw_9310_pu.csv) qmult = (file=profiles/res_kvar_9310_pu.csv)

New Loadshape.res_kw_11820_pu npts= 35040 interval=0.25 mult = (file=profiles/res_kw_11820_pu.csv) qmult = (file=profiles/res_kvar_11820_pu.csv)

New Loadshape.res_kw_489_pu npts= 35040 interval=0.25 mult = (file=profiles/res_kw_489_pu.csv) qmult = (file=profiles/res_kvar_489_pu.csv)

New Loadshape.res_kw_5722_pu npts= 35040 interval=0.25 mult = (file=profiles/res_kw_5722_pu.csv) qmult = (file=profiles/res_kvar_5722_pu.csv)

New Loadshape.res_kw_6602_pu npts= 35040 interval=0.25 mult = (file=profiles/res_kw_6602_pu.csv) qmult = (file=profiles/res_kvar_6602_pu.csv)

New Loadshape.res_kw_10142_pu npts= 35040 interval=0.25 mult = (file=profiles/res_kw_10142_pu.csv) qmult = (file=profiles/res_kvar_10142_pu.csv)

New Loadshape.res_kw_13252_pu npts= 35040 interval=0.25 mult = (file=profiles/res_kw_13252_pu.csv) qmult = (file=profiles/res_kvar_13252_pu.csv)

New Loadshape.res_kw_8497_pu npts= 35040 interval=0.25 mult = (file=profiles/res_kw_8497_pu.csv) qmult = (file=profiles/res_kvar_8497_pu.csv)

New Loadshape.res_kw_1646_pu npts= 35040 interval=0.25 mult = (file=profiles/res_kw_1646_pu.csv) qmult = (file=profiles/res_kvar_1646_pu.csv)

New Loadshape.res_kw_12981_pu npts= 35040 interval=0.25 mult = (file=profiles/res_kw_12981_pu.csv) qmult = (file=profiles/res_kvar_12981_pu.csv)

New Loadshape.res_kw_8349_pu npts= 35040 interval=0.25 mult = (file=profiles/res_kw_8349_pu.csv) qmult = (file=profiles/res_kvar_8349_pu.csv)

New Loadshape.res_kw_4602_pu npts= 35040 interval=0.25 mult = (file=profiles/res_kw_4602_pu.csv) qmult = (file=profiles/res_kvar_4602_pu.csv)

New Loadshape.res_kw_14289_pu npts= 35040 interval=0.25 mult = (file=profiles/res_kw_14289_pu.csv) qmult = (file=profiles/res_kvar_14289_pu.csv)

New Loadshape.res_kw_7349_pu npts= 35040 interval=0.25 mult = (file=profiles/res_kw_7349_pu.csv) qmult = (file=profiles/res_kvar_7349_pu.csv)

New Loadshape.res_kw_5921_pu npts= 35040 interval=0.25 mult = (file=profiles/res_kw_5921_pu.csv) qmult = (file=profiles/res_kvar_5921_pu.csv)

New Loadshape.res_kw_10390_pu npts= 35040 interval=0.25 mult = (file=profiles/res_kw_10390_pu.csv) qmult = (file=profiles/res_kvar_10390_pu.csv)

New Loadshape.res_kw_6096_pu npts= 35040 interval=0.25 mult = (file=profiles/res_kw_6096_pu.csv) qmult = (file=profiles/res_kvar_6096_pu.csv)

New Loadshape.res_kw_2859_pu npts= 35040 interval=0.25 mult = (file=profiles/res_kw_2859_pu.csv) qmult = (file=profiles/res_kvar_2859_pu.csv)

New Loadshape.res_kw_7343_pu npts= 35040 interval=0.25 mult = (file=profiles/res_kw_7343_pu.csv) qmult = (file=profiles/res_kvar_7343_pu.csv)

New Loadshape.res_kw_12348_pu npts= 35040 interval=0.25 mult = (file=profiles/res_kw_12348_pu.csv) qmult = (file=profiles/res_kvar_12348_pu.csv)

New Loadshape.res_kw_15065_pu npts= 35040 interval=0.25 mult = (file=profiles/res_kw_15065_pu.csv) qmult = (file=profiles/res_kvar_15065_pu.csv)

New Loadshape.res_kw_4690_pu npts= 35040 interval=0.25 mult = (file=profiles/res_kw_4690_pu.csv) qmult = (file=profiles/res_kvar_4690_pu.csv)

New Loadshape.res_kw_13840_pu npts= 35040 interval=0.25 mult = (file=profiles/res_kw_13840_pu.csv) qmult = (file=profiles/res_kvar_13840_pu.csv)

New Loadshape.res_kw_10595_pu npts= 35040 interval=0.25 mult = (file=profiles/res_kw_10595_pu.csv) qmult = (file=profiles/res_kvar_10595_pu.csv)

New Loadshape.res_kw_14133_pu npts= 35040 interval=0.25 mult = (file=profiles/res_kw_14133_pu.csv) qmult = (file=profiles/res_kvar_14133_pu.csv)

New Loadshape.res_kw_10928_pu npts= 35040 interval=0.25 mult = (file=profiles/res_kw_10928_pu.csv) qmult = (file=profiles/res_kvar_10928_pu.csv)

New Loadshape.res_kw_10572_pu npts= 35040 interval=0.25 mult = (file=profiles/res_kw_10572_pu.csv) qmult = (file=profiles/res_kvar_10572_pu.csv)

New Loadshape.res_kw_5091_pu npts= 35040 interval=0.25 mult = (file=profiles/res_kw_5091_pu.csv) qmult = (file=profiles/res_kvar_5091_pu.csv)

New Loadshape.res_kw_13794_pu npts= 35040 interval=0.25 mult = (file=profiles/res_kw_13794_pu.csv) qmult = (file=profiles/res_kvar_13794_pu.csv)

New Loadshape.res_kw_7091_pu npts= 35040 interval=0.25 mult = (file=profiles/res_kw_7091_pu.csv) qmult = (file=profiles/res_kvar_7091_pu.csv)

New Loadshape.res_kw_11867_pu npts= 35040 interval=0.25 mult = (file=profiles/res_kw_11867_pu.csv) qmult = (file=profiles/res_kvar_11867_pu.csv)

New Loadshape.res_kw_3219_pu npts= 35040 interval=0.25 mult = (file=profiles/res_kw_3219_pu.csv) qmult = (file=profiles/res_kvar_3219_pu.csv)

New Loadshape.res_kw_8820_pu npts= 35040 interval=0.25 mult = (file=profiles/res_kw_8820_pu.csv) qmult = (file=profiles/res_kvar_8820_pu.csv)

New Loadshape.res_kw_8900_pu npts= 35040 interval=0.25 mult = (file=profiles/res_kw_8900_pu.csv) qmult = (file=profiles/res_kvar_8900_pu.csv)

New Loadshape.res_kw_13532_pu npts= 35040 interval=0.25 mult = (file=profiles/res_kw_13532_pu.csv) qmult = (file=profiles/res_kvar_13532_pu.csv)

New Loadshape.res_kw_9049_pu npts= 35040 interval=0.25 mult = (file=profiles/res_kw_9049_pu.csv) qmult = (file=profiles/res_kvar_9049_pu.csv)

New Loadshape.res_kw_3592_pu npts= 35040 interval=0.25 mult = (file=profiles/res_kw_3592_pu.csv) qmult = (file=profiles/res_kvar_3592_pu.csv)

New Loadshape.res_kw_5299_pu npts= 35040 interval=0.25 mult = (file=profiles/res_kw_5299_pu.csv) qmult = (file=profiles/res_kvar_5299_pu.csv)

New Loadshape.res_kw_8906_pu npts= 35040 interval=0.25 mult = (file=profiles/res_kw_8906_pu.csv) qmult = (file=profiles/res_kvar_8906_pu.csv)

New Loadshape.res_kw_2624_pu npts= 35040 interval=0.25 mult = (file=profiles/res_kw_2624_pu.csv) qmult = (file=profiles/res_kvar_2624_pu.csv)

New Loadshape.res_kw_14158_pu npts= 35040 interval=0.25 mult = (file=profiles/res_kw_14158_pu.csv) qmult = (file=profiles/res_kvar_14158_pu.csv)

New Loadshape.res_kw_13468_pu npts= 35040 interval=0.25 mult = (file=profiles/res_kw_13468_pu.csv) qmult = (file=profiles/res_kvar_13468_pu.csv)

New Loadshape.res_kw_6488_pu npts= 35040 interval=0.25 mult = (file=profiles/res_kw_6488_pu.csv) qmult = (file=profiles/res_kvar_6488_pu.csv)

New Loadshape.res_kw_5167_pu npts= 35040 interval=0.25 mult = (file=profiles/res_kw_5167_pu.csv) qmult = (file=profiles/res_kvar_5167_pu.csv)

New Loadshape.res_kw_7881_pu npts= 35040 interval=0.25 mult = (file=profiles/res_kw_7881_pu.csv) qmult = (file=profiles/res_kvar_7881_pu.csv)

New Loadshape.res_kw_8537_pu npts= 35040 interval=0.25 mult = (file=profiles/res_kw_8537_pu.csv) qmult = (file=profiles/res_kvar_8537_pu.csv)

New Loadshape.res_kw_2652_pu npts= 35040 interval=0.25 mult = (file=profiles/res_kw_2652_pu.csv) qmult = (file=profiles/res_kvar_2652_pu.csv)

New Loadshape.res_kw_10051_pu npts= 35040 interval=0.25 mult = (file=profiles/res_kw_10051_pu.csv) qmult = (file=profiles/res_kvar_10051_pu.csv)

New Loadshape.res_kw_13866_pu npts= 35040 interval=0.25 mult = (file=profiles/res_kw_13866_pu.csv) qmult = (file=profiles/res_kvar_13866_pu.csv)

New Loadshape.res_kw_2483_pu npts= 35040 interval=0.25 mult = (file=profiles/res_kw_2483_pu.csv) qmult = (file=profiles/res_kvar_2483_pu.csv)

New Loadshape.res_kw_2070_pu npts= 35040 interval=0.25 mult = (file=profiles/res_kw_2070_pu.csv) qmult = (file=profiles/res_kvar_2070_pu.csv)

New Loadshape.res_kw_6391_pu npts= 35040 interval=0.25 mult = (file=profiles/res_kw_6391_pu.csv) qmult = (file=profiles/res_kvar_6391_pu.csv)

New Loadshape.res_kw_6196_pu npts= 35040 interval=0.25 mult = (file=profiles/res_kw_6196_pu.csv) qmult = (file=profiles/res_kvar_6196_pu.csv)

New Loadshape.res_kw_5369_pu npts= 35040 interval=0.25 mult = (file=profiles/res_kw_5369_pu.csv) qmult = (file=profiles/res_kvar_5369_pu.csv)

New Loadshape.res_kw_6376_pu npts= 35040 interval=0.25 mult = (file=profiles/res_kw_6376_pu.csv) qmult = (file=profiles/res_kvar_6376_pu.csv)

New Loadshape.res_kw_1639_pu npts= 35040 interval=0.25 mult = (file=profiles/res_kw_1639_pu.csv) qmult = (file=profiles/res_kvar_1639_pu.csv)

New Loadshape.res_kw_13700_pu npts= 35040 interval=0.25 mult = (file=profiles/res_kw_13700_pu.csv) qmult = (file=profiles/res_kvar_13700_pu.csv)

New Loadshape.res_kw_13616_pu npts= 35040 interval=0.25 mult = (file=profiles/res_kw_13616_pu.csv) qmult = (file=profiles/res_kvar_13616_pu.csv)

New Loadshape.res_kw_3355_pu npts= 35040 interval=0.25 mult = (file=profiles/res_kw_3355_pu.csv) qmult = (file=profiles/res_kvar_3355_pu.csv)

New Loadshape.res_kw_13238_pu npts= 35040 interval=0.25 mult = (file=profiles/res_kw_13238_pu.csv) qmult = (file=profiles/res_kvar_13238_pu.csv)

New Loadshape.res_kw_8118_pu npts= 35040 interval=0.25 mult = (file=profiles/res_kw_8118_pu.csv) qmult = (file=profiles/res_kvar_8118_pu.csv)

New Loadshape.res_kw_15066_pu npts= 35040 interval=0.25 mult = (file=profiles/res_kw_15066_pu.csv) qmult = (file=profiles/res_kvar_15066_pu.csv)

New Loadshape.res_kw_4108_pu npts= 35040 interval=0.25 mult = (file=profiles/res_kw_4108_pu.csv) qmult = (file=profiles/res_kvar_4108_pu.csv)

New Loadshape.res_kw_6975_pu npts= 35040 interval=0.25 mult = (file=profiles/res_kw_6975_pu.csv) qmult = (file=profiles/res_kvar_6975_pu.csv)

New Loadshape.res_kw_7847_pu npts= 35040 interval=0.25 mult = (file=profiles/res_kw_7847_pu.csv) qmult = (file=profiles/res_kvar_7847_pu.csv)

New Loadshape.res_kw_6225_pu npts= 35040 interval=0.25 mult = (file=profiles/res_kw_6225_pu.csv) qmult = (file=profiles/res_kvar_6225_pu.csv)

New Loadshape.res_kw_960_pu npts= 35040 interval=0.25 mult = (file=profiles/res_kw_960_pu.csv) qmult = (file=profiles/res_kvar_960_pu.csv)

New Loadshape.res_kw_7001_pu npts= 35040 interval=0.25 mult = (file=profiles/res_kw_7001_pu.csv) qmult = (file=profiles/res_kvar_7001_pu.csv)

New Loadshape.res_kw_6313_pu npts= 35040 interval=0.25 mult = (file=profiles/res_kw_6313_pu.csv) qmult = (file=profiles/res_kvar_6313_pu.csv)

New Loadshape.res_kw_12720_pu npts= 35040 interval=0.25 mult = (file=profiles/res_kw_12720_pu.csv) qmult = (file=profiles/res_kvar_12720_pu.csv)

New Loadshape.res_kw_6802_pu npts= 35040 interval=0.25 mult = (file=profiles/res_kw_6802_pu.csv) qmult = (file=profiles/res_kvar_6802_pu.csv)

New Loadshape.res_kw_4944_pu npts= 35040 interval=0.25 mult = (file=profiles/res_kw_4944_pu.csv) qmult = (file=profiles/res_kvar_4944_pu.csv)

New Loadshape.res_kw_10222_pu npts= 35040 interval=0.25 mult = (file=profiles/res_kw_10222_pu.csv) qmult = (file=profiles/res_kvar_10222_pu.csv)

New Loadshape.res_kw_11687_pu npts= 35040 interval=0.25 mult = (file=profiles/res_kw_11687_pu.csv) qmult = (file=profiles/res_kvar_11687_pu.csv)

New Loadshape.res_kw_7851_pu npts= 35040 interval=0.25 mult = (file=profiles/res_kw_7851_pu.csv) qmult = (file=profiles/res_kvar_7851_pu.csv)

New Loadshape.res_kw_6021_pu npts= 35040 interval=0.25 mult = (file=profiles/res_kw_6021_pu.csv) qmult = (file=profiles/res_kvar_6021_pu.csv)

New Loadshape.res_kw_11983_pu npts= 35040 interval=0.25 mult = (file=profiles/res_kw_11983_pu.csv) qmult = (file=profiles/res_kvar_11983_pu.csv)

New Loadshape.res_kw_3862_pu npts= 35040 interval=0.25 mult = (file=profiles/res_kw_3862_pu.csv) qmult = (file=profiles/res_kvar_3862_pu.csv)

New Loadshape.res_kw_325_pu npts= 35040 interval=0.25 mult = (file=profiles/res_kw_325_pu.csv) qmult = (file=profiles/res_kvar_325_pu.csv)

New Loadshape.res_kw_11843_pu npts= 35040 interval=0.25 mult = (file=profiles/res_kw_11843_pu.csv) qmult = (file=profiles/res_kvar_11843_pu.csv)

New Loadshape.res_kw_9240_pu npts= 35040 interval=0.25 mult = (file=profiles/res_kw_9240_pu.csv) qmult = (file=profiles/res_kvar_9240_pu.csv)

New Loadshape.res_kw_6984_pu npts= 35040 interval=0.25 mult = (file=profiles/res_kw_6984_pu.csv) qmult = (file=profiles/res_kvar_6984_pu.csv)

New Loadshape.res_kw_8121_pu npts= 35040 interval=0.25 mult = (file=profiles/res_kw_8121_pu.csv) qmult = (file=profiles/res_kvar_8121_pu.csv)

New Loadshape.res_kw_7659_pu npts= 35040 interval=0.25 mult = (file=profiles/res_kw_7659_pu.csv) qmult = (file=profiles/res_kvar_7659_pu.csv)

New Loadshape.res_kw_7294_pu npts= 35040 interval=0.25 mult = (file=profiles/res_kw_7294_pu.csv) qmult = (file=profiles/res_kvar_7294_pu.csv)

New Loadshape.res_kw_7397_pu npts= 35040 interval=0.25 mult = (file=profiles/res_kw_7397_pu.csv) qmult = (file=profiles/res_kvar_7397_pu.csv)

New Loadshape.res_kw_557_pu npts= 35040 interval=0.25 mult = (file=profiles/res_kw_557_pu.csv) qmult = (file=profiles/res_kvar_557_pu.csv)

New Loadshape.res_kw_10372_pu npts= 35040 interval=0.25 mult = (file=profiles/res_kw_10372_pu.csv) qmult = (file=profiles/res_kvar_10372_pu.csv)

New Loadshape.res_kw_6422_pu npts= 35040 interval=0.25 mult = (file=profiles/res_kw_6422_pu.csv) qmult = (file=profiles/res_kvar_6422_pu.csv)

New Loadshape.res_kw_7122_pu npts= 35040 interval=0.25 mult = (file=profiles/res_kw_7122_pu.csv) qmult = (file=profiles/res_kvar_7122_pu.csv)

New Loadshape.res_kw_1859_pu npts= 35040 interval=0.25 mult = (file=profiles/res_kw_1859_pu.csv) qmult = (file=profiles/res_kvar_1859_pu.csv)

New Loadshape.res_kw_8001_pu npts= 35040 interval=0.25 mult = (file=profiles/res_kw_8001_pu.csv) qmult = (file=profiles/res_kvar_8001_pu.csv)

New Loadshape.res_kw_11510_pu npts= 35040 interval=0.25 mult = (file=profiles/res_kw_11510_pu.csv) qmult = (file=profiles/res_kvar_11510_pu.csv)

New Loadshape.res_kw_10562_pu npts= 35040 interval=0.25 mult = (file=profiles/res_kw_10562_pu.csv) qmult = (file=profiles/res_kvar_10562_pu.csv)

New Loadshape.res_kw_8905_pu npts= 35040 interval=0.25 mult = (file=profiles/res_kw_8905_pu.csv) qmult = (file=profiles/res_kvar_8905_pu.csv)

New Loadshape.res_kw_1517_pu npts= 35040 interval=0.25 mult = (file=profiles/res_kw_1517_pu.csv) qmult = (file=profiles/res_kvar_1517_pu.csv)

New Loadshape.res_kw_7810_pu npts= 35040 interval=0.25 mult = (file=profiles/res_kw_7810_pu.csv) qmult = (file=profiles/res_kvar_7810_pu.csv)

New Loadshape.res_kw_13778_pu npts= 35040 interval=0.25 mult = (file=profiles/res_kw_13778_pu.csv) qmult = (file=profiles/res_kvar_13778_pu.csv)

New Loadshape.res_kw_6607_pu npts= 35040 interval=0.25 mult = (file=profiles/res_kw_6607_pu.csv) qmult = (file=profiles/res_kvar_6607_pu.csv)

New Loadshape.res_kw_1476_pu npts= 35040 interval=0.25 mult = (file=profiles/res_kw_1476_pu.csv) qmult = (file=profiles/res_kvar_1476_pu.csv)

New Loadshape.res_kw_14110_pu npts= 35040 interval=0.25 mult = (file=profiles/res_kw_14110_pu.csv) qmult = (file=profiles/res_kvar_14110_pu.csv)

New Loadshape.com_kw_17157_pu npts= 35040 interval=0.25 mult = (file=profiles/com_kw_17157_pu.csv) qmult = (file=profiles/com_kvar_17157_pu.csv)

New Loadshape.com_kw_32186_pu npts= 35040 interval=0.25 mult = (file=profiles/com_kw_32186_pu.csv) qmult = (file=profiles/com_kvar_32186_pu.csv)

New Loadshape.com_kw_41529_pu npts= 35040 interval=0.25 mult = (file=profiles/com_kw_41529_pu.csv) qmult = (file=profiles/com_kvar_41529_pu.csv)

New Loadshape.com_kw_16581_pu npts= 35040 interval=0.25 mult = (file=profiles/com_kw_16581_pu.csv) qmult = (file=profiles/com_kvar_16581_pu.csv)

New Loadshape.com_kw_33943_pu npts= 35040 interval=0.25 mult = (file=profiles/com_kw_33943_pu.csv) qmult = (file=profiles/com_kvar_33943_pu.csv)

New Loadshape.com_kw_18314_pu npts= 35040 interval=0.25 mult = (file=profiles/com_kw_18314_pu.csv) qmult = (file=profiles/com_kvar_18314_pu.csv)

New Loadshape.com_kw_33365_pu npts= 35040 interval=0.25 mult = (file=profiles/com_kw_33365_pu.csv) qmult = (file=profiles/com_kvar_33365_pu.csv)

New Loadshape.com_kw_33434_pu npts= 35040 interval=0.25 mult = (file=profiles/com_kw_33434_pu.csv) qmult = (file=profiles/com_kvar_33434_pu.csv)

New Loadshape.com_kw_1743_pu npts= 35040 interval=0.25 mult = (file=profiles/com_kw_1743_pu.csv) qmult = (file=profiles/com_kvar_1743_pu.csv)

New Loadshape.com_kw_2361_pu npts= 35040 interval=0.25 mult = (file=profiles/com_kw_2361_pu.csv) qmult = (file=profiles/com_kvar_2361_pu.csv)

New Loadshape.com_kw_17825_pu npts= 35040 interval=0.25 mult = (file=profiles/com_kw_17825_pu.csv) qmult = (file=profiles/com_kvar_17825_pu.csv)

New Loadshape.com_kw_22700_pu npts= 35040 interval=0.25 mult = (file=profiles/com_kw_22700_pu.csv) qmult = (file=profiles/com_kvar_22700_pu.csv)

New Loadshape.com_kw_32163_pu npts= 35040 interval=0.25 mult = (file=profiles/com_kw_32163_pu.csv) qmult = (file=profiles/com_kvar_32163_pu.csv)

New Loadshape.com_kw_1789_pu npts= 35040 interval=0.25 mult = (file=profiles/com_kw_1789_pu.csv) qmult = (file=profiles/com_kvar_1789_pu.csv)

New Loadshape.com_kw_1642_pu npts= 35040 interval=0.25 mult = (file=profiles/com_kw_1642_pu.csv) qmult = (file=profiles/com_kvar_1642_pu.csv)

New Loadshape.com_kw_35553_pu npts= 35040 interval=0.25 mult = (file=profiles/com_kw_35553_pu.csv) qmult = (file=profiles/com_kvar_35553_pu.csv)

New Loadshape.com_kw_29161_pu npts= 35040 interval=0.25 mult = (file=profiles/com_kw_29161_pu.csv) qmult = (file=profiles/com_kvar_29161_pu.csv)

New Loadshape.com_kw_29191_pu npts= 35040 interval=0.25 mult = (file=profiles/com_kw_29191_pu.csv) qmult = (file=profiles/com_kvar_29191_pu.csv)

New Loadshape.com_kw_41612_pu npts= 35040 interval=0.25 mult = (file=profiles/com_kw_41612_pu.csv) qmult = (file=profiles/com_kvar_41612_pu.csv)

New Loadshape.com_kw_31683_pu npts= 35040 interval=0.25 mult = (file=profiles/com_kw_31683_pu.csv) qmult = (file=profiles/com_kvar_31683_pu.csv)

New Loadshape.com_kw_29082_pu npts= 35040 interval=0.25 mult = (file=profiles/com_kw_29082_pu.csv) qmult = (file=profiles/com_kvar_29082_pu.csv)

New Loadshape.com_kw_22736_pu npts= 35040 interval=0.25 mult = (file=profiles/com_kw_22736_pu.csv) qmult = (file=profiles/com_kvar_22736_pu.csv)

New Loadshape.com_kw_31626_pu npts= 35040 interval=0.25 mult = (file=profiles/com_kw_31626_pu.csv) qmult = (file=profiles/com_kvar_31626_pu.csv)

New Loadshape.com_kw_2499_pu npts= 35040 interval=0.25 mult = (file=profiles/com_kw_2499_pu.csv) qmult = (file=profiles/com_kvar_2499_pu.csv)

New Loadshape.com_kw_19739_pu npts= 35040 interval=0.25 mult = (file=profiles/com_kw_19739_pu.csv) qmult = (file=profiles/com_kvar_19739_pu.csv)

New Loadshape.com_kw_29321_pu npts= 35040 interval=0.25 mult = (file=profiles/com_kw_29321_pu.csv) qmult = (file=profiles/com_kvar_29321_pu.csv)

New Loadshape.com_kw_35494_pu npts= 35040 interval=0.25 mult = (file=profiles/com_kw_35494_pu.csv) qmult = (file=profiles/com_kvar_35494_pu.csv)

New Loadshape.com_kw_31676_pu npts= 35040 interval=0.25 mult = (file=profiles/com_kw_31676_pu.csv) qmult = (file=profiles/com_kvar_31676_pu.csv)

New Loadshape.com_kw_39906_pu npts= 35040 interval=0.25 mult = (file=profiles/com_kw_39906_pu.csv) qmult = (file=profiles/com_kvar_39906_pu.csv)

New Loadshape.com_kw_32053_pu npts= 35040 interval=0.25 mult = (file=profiles/com_kw_32053_pu.csv) qmult = (file=profiles/com_kvar_32053_pu.csv)

New Loadshape.com_kw_17095_pu npts= 35040 interval=0.25 mult = (file=profiles/com_kw_17095_pu.csv) qmult = (file=profiles/com_kvar_17095_pu.csv)

New Loadshape.com_kw_1541_pu npts= 35040 interval=0.25 mult = (file=profiles/com_kw_1541_pu.csv) qmult = (file=profiles/com_kvar_1541_pu.csv)

New Loadshape.com_kw_17204_pu npts= 35040 interval=0.25 mult = (file=profiles/com_kw_17204_pu.csv) qmult = (file=profiles/com_kvar_17204_pu.csv)

New Loadshape.com_kw_29611_pu npts= 35040 interval=0.25 mult = (file=profiles/com_kw_29611_pu.csv) qmult = (file=profiles/com_kvar_29611_pu.csv)

New Loadshape.com_kw_1644_pu npts= 35040 interval=0.25 mult = (file=profiles/com_kw_1644_pu.csv) qmult = (file=profiles/com_kvar_1644_pu.csv)

New Loadshape.com_kw_19893_pu npts= 35040 interval=0.25 mult = (file=profiles/com_kw_19893_pu.csv) qmult = (file=profiles/com_kvar_19893_pu.csv)

New Loadshape.com_kw_35614_pu npts= 35040 interval=0.25 mult = (file=profiles/com_kw_35614_pu.csv) qmult = (file=profiles/com_kvar_35614_pu.csv)

New Loadshape.com_kw_32056_pu npts= 35040 interval=0.25 mult = (file=profiles/com_kw_32056_pu.csv) qmult = (file=profiles/com_kvar_32056_pu.csv)

New Loadshape.com_kw_39471_pu npts= 35040 interval=0.25 mult = (file=profiles/com_kw_39471_pu.csv) qmult = (file=profiles/com_kvar_39471_pu.csv)

New Loadshape.com_kw_33842_pu npts= 35040 interval=0.25 mult = (file=profiles/com_kw_33842_pu.csv) qmult = (file=profiles/com_kvar_33842_pu.csv)

New Loadshape.com_kw_2748_pu npts= 35040 interval=0.25 mult = (file=profiles/com_kw_2748_pu.csv) qmult = (file=profiles/com_kvar_2748_pu.csv)

New Loadshape.com_kw_2581_pu npts= 35040 interval=0.25 mult = (file=profiles/com_kw_2581_pu.csv) qmult = (file=profiles/com_kvar_2581_pu.csv)

New Loadshape.com_kw_39278_pu npts= 35040 interval=0.25 mult = (file=profiles/com_kw_39278_pu.csv) qmult = (file=profiles/com_kvar_39278_pu.csv)

New Loadshape.com_kw_29179_pu npts= 35040 interval=0.25 mult = (file=profiles/com_kw_29179_pu.csv) qmult = (file=profiles/com_kvar_29179_pu.csv)

New Loadshape.com_kw_39761_pu npts= 35040 interval=0.25 mult = (file=profiles/com_kw_39761_pu.csv) qmult = (file=profiles/com_kvar_39761_pu.csv)

New Loadshape.com_kw_29552_pu npts= 35040 interval=0.25 mult = (file=profiles/com_kw_29552_pu.csv) qmult = (file=profiles/com_kvar_29552_pu.csv)

New Loadshape.com_kw_32076_pu npts= 35040 interval=0.25 mult = (file=profiles/com_kw_32076_pu.csv) qmult = (file=profiles/com_kvar_32076_pu.csv)

New Loadshape.com_kw_2007_pu npts= 35040 interval=0.25 mult = (file=profiles/com_kw_2007_pu.csv) qmult = (file=profiles/com_kvar_2007_pu.csv)

New Loadshape.com_kw_2606_pu npts= 35040 interval=0.25 mult = (file=profiles/com_kw_2606_pu.csv) qmult = (file=profiles/com_kvar_2606_pu.csv)

New Loadshape.com_kw_17229_pu npts= 35040 interval=0.25 mult = (file=profiles/com_kw_17229_pu.csv) qmult = (file=profiles/com_kvar_17229_pu.csv)

New Loadshape.com_kw_41421_pu npts= 35040 interval=0.25 mult = (file=profiles/com_kw_41421_pu.csv) qmult = (file=profiles/com_kvar_41421_pu.csv)

New Loadshape.com_kw_33829_pu npts= 35040 interval=0.25 mult = (file=profiles/com_kw_33829_pu.csv) qmult = (file=profiles/com_kvar_33829_pu.csv)

New Loadshape.com_kw_33783_pu npts= 35040 interval=0.25 mult = (file=profiles/com_kw_33783_pu.csv) qmult = (file=profiles/com_kvar_33783_pu.csv)

New Loadshape.com_kw_33186_pu npts= 35040 interval=0.25 mult = (file=profiles/com_kw_33186_pu.csv) qmult = (file=profiles/com_kvar_33186_pu.csv)

New Loadshape.com_kw_31603_pu npts= 35040 interval=0.25 mult = (file=profiles/com_kw_31603_pu.csv) qmult = (file=profiles/com_kvar_31603_pu.csv)

New Loadshape.com_kw_34105_pu npts= 35040 interval=0.25 mult = (file=profiles/com_kw_34105_pu.csv) qmult = (file=profiles/com_kvar_34105_pu.csv)

New Loadshape.com_kw_32175_pu npts= 35040 interval=0.25 mult = (file=profiles/com_kw_32175_pu.csv) qmult = (file=profiles/com_kvar_32175_pu.csv)

New Loadshape.com_kw_2052_pu npts= 35040 interval=0.25 mult = (file=profiles/com_kw_2052_pu.csv) qmult = (file=profiles/com_kvar_2052_pu.csv)

New Loadshape.com_kw_1835_pu npts= 35040 interval=0.25 mult = (file=profiles/com_kw_1835_pu.csv) qmult = (file=profiles/com_kvar_1835_pu.csv)

New Loadshape.com_kw_16509_pu npts= 35040 interval=0.25 mult = (file=profiles/com_kw_16509_pu.csv) qmult = (file=profiles/com_kvar_16509_pu.csv)

New Loadshape.com_kw_29184_pu npts= 35040 interval=0.25 mult = (file=profiles/com_kw_29184_pu.csv) qmult = (file=profiles/com_kvar_29184_pu.csv)

New Loadshape.com_kw_33360_pu npts= 35040 interval=0.25 mult = (file=profiles/com_kw_33360_pu.csv) qmult = (file=profiles/com_kvar_33360_pu.csv)

New Loadshape.com_kw_2322_pu npts= 35040 interval=0.25 mult = (file=profiles/com_kw_2322_pu.csv) qmult = (file=profiles/com_kvar_2322_pu.csv)

New Loadshape.com_kw_33605_pu npts= 35040 interval=0.25 mult = (file=profiles/com_kw_33605_pu.csv) qmult = (file=profiles/com_kvar_33605_pu.csv)

New Loadshape.com_kw_2601_pu npts= 35040 interval=0.25 mult = (file=profiles/com_kw_2601_pu.csv) qmult = (file=profiles/com_kvar_2601_pu.csv)

New Loadshape.com_kw_17375_pu npts= 35040 interval=0.25 mult = (file=profiles/com_kw_17375_pu.csv) qmult = (file=profiles/com_kvar_17375_pu.csv)

New Loadshape.com_kw_18116_pu npts= 35040 interval=0.25 mult = (file=profiles/com_kw_18116_pu.csv) qmult = (file=profiles/com_kvar_18116_pu.csv)

New Loadshape.com_kw_35438_pu npts= 35040 interval=0.25 mult = (file=profiles/com_kw_35438_pu.csv) qmult = (file=profiles/com_kvar_35438_pu.csv)

New Loadshape.com_kw_33956_pu npts= 35040 interval=0.25 mult = (file=profiles/com_kw_33956_pu.csv) qmult = (file=profiles/com_kvar_33956_pu.csv)

New Loadshape.com_kw_18271_pu npts= 35040 interval=0.25 mult = (file=profiles/com_kw_18271_pu.csv) qmult = (file=profiles/com_kvar_18271_pu.csv)

New Loadshape.com_kw_17691_pu npts= 35040 interval=0.25 mult = (file=profiles/com_kw_17691_pu.csv) qmult = (file=profiles/com_kvar_17691_pu.csv)

New Loadshape.com_kw_17525_pu npts= 35040 interval=0.25 mult = (file=profiles/com_kw_17525_pu.csv) qmult = (file=profiles/com_kvar_17525_pu.csv)

New Loadshape.com_kw_16036_pu npts= 35040 interval=0.25 mult = (file=profiles/com_kw_16036_pu.csv) qmult = (file=profiles/com_kvar_16036_pu.csv)

New Loadshape.com_kw_32193_pu npts= 35040 interval=0.25 mult = (file=profiles/com_kw_32193_pu.csv) qmult = (file=profiles/com_kvar_32193_pu.csv)

New Loadshape.com_kw_2456_pu npts= 35040 interval=0.25 mult = (file=profiles/com_kw_2456_pu.csv) qmult = (file=profiles/com_kvar_2456_pu.csv)

New Loadshape.com_kw_1330_pu npts= 35040 interval=0.25 mult = (file=profiles/com_kw_1330_pu.csv) qmult = (file=profiles/com_kvar_1330_pu.csv)

New Loadshape.com_kw_34423_pu npts= 35040 interval=0.25 mult = (file=profiles/com_kw_34423_pu.csv) qmult = (file=profiles/com_kvar_34423_pu.csv)

New Loadshape.com_kw_33300_pu npts= 35040 interval=0.25 mult = (file=profiles/com_kw_33300_pu.csv) qmult = (file=profiles/com_kvar_33300_pu.csv)

New Loadshape.com_kw_41383_pu npts= 35040 interval=0.25 mult = (file=profiles/com_kw_41383_pu.csv) qmult = (file=profiles/com_kvar_41383_pu.csv)

New Loadshape.com_kw_29383_pu npts= 35040 interval=0.25 mult = (file=profiles/com_kw_29383_pu.csv) qmult = (file=profiles/com_kvar_29383_pu.csv)

New Loadshape.com_kw_1363_pu npts= 35040 interval=0.25 mult = (file=profiles/com_kw_1363_pu.csv) qmult = (file=profiles/com_kvar_1363_pu.csv)

New Loadshape.com_kw_33792_pu npts= 35040 interval=0.25 mult = (file=profiles/com_kw_33792_pu.csv) qmult = (file=profiles/com_kvar_33792_pu.csv)

New Loadshape.com_kw_1590_pu npts= 35040 interval=0.25 mult = (file=profiles/com_kw_1590_pu.csv) qmult = (file=profiles/com_kvar_1590_pu.csv)

New Loadshape.com_kw_33750_pu npts= 35040 interval=0.25 mult = (file=profiles/com_kw_33750_pu.csv) qmult = (file=profiles/com_kvar_33750_pu.csv)

New Loadshape.com_kw_1714_pu npts= 35040 interval=0.25 mult = (file=profiles/com_kw_1714_pu.csv) qmult = (file=profiles/com_kvar_1714_pu.csv)

New Loadshape.com_kw_1416_pu npts= 35040 interval=0.25 mult = (file=profiles/com_kw_1416_pu.csv) qmult = (file=profiles/com_kvar_1416_pu.csv)

New Loadshape.com_kw_18139_pu npts= 35040 interval=0.25 mult = (file=profiles/com_kw_18139_pu.csv) qmult = (file=profiles/com_kvar_18139_pu.csv)

New Loadshape.com_kw_22637_pu npts= 35040 interval=0.25 mult = (file=profiles/com_kw_22637_pu.csv) qmult = (file=profiles/com_kvar_22637_pu.csv)

New Loadshape.com_kw_33396_pu npts= 35040 interval=0.25 mult = (file=profiles/com_kw_33396_pu.csv) qmult = (file=profiles/com_kvar_33396_pu.csv)

New Loadshape.com_kw_16229_pu npts= 35040 interval=0.25 mult = (file=profiles/com_kw_16229_pu.csv) qmult = (file=profiles/com_kvar_16229_pu.csv)

New Loadshape.com_kw_17123_pu npts= 35040 interval=0.25 mult = (file=profiles/com_kw_17123_pu.csv) qmult = (file=profiles/com_kvar_17123_pu.csv)

New Loadshape.com_kw_16483_pu npts= 35040 interval=0.25 mult = (file=profiles/com_kw_16483_pu.csv) qmult = (file=profiles/com_kvar_16483_pu.csv)

New Loadshape.com_kw_17845_pu npts= 35040 interval=0.25 mult = (file=profiles/com_kw_17845_pu.csv) qmult = (file=profiles/com_kvar_17845_pu.csv)

New Loadshape.com_kw_22660_pu npts= 35040 interval=0.25 mult = (file=profiles/com_kw_22660_pu.csv) qmult = (file=profiles/com_kvar_22660_pu.csv)

New Loadshape.com_kw_21144_pu npts= 35040 interval=0.25 mult = (file=profiles/com_kw_21144_pu.csv) qmult = (file=profiles/com_kvar_21144_pu.csv)

New Loadshape.com_kw_22723_pu npts= 35040 interval=0.25 mult = (file=profiles/com_kw_22723_pu.csv) qmult = (file=profiles/com_kvar_22723_pu.csv)
